43
Comment: Cocaine
C   1.36344898964  1.47520788024  1.70314285818
N   2.18145955196  1.30524573316  0.465816401015
C   2.24226551001  2.26698254368  -0.666387494615
H   2.36716891041  3.30390752701  -0.320884982692
C   3.52227445967  1.76823739983  -1.461520173
C   3.827475222  0.37956063088  -0.840887049289
C   2.4308823274  -0.010147932664  -0.203807867023
H   2.51325339717  -0.821380236697  0.532457304866
C   1.39521150438  -0.371264065798  -1.33070039384
H   1.9384093455  -0.56237172319  -2.28388864852
C   0.73461402655  -1.73070602449  -1.00773115903
O   0.0208427790621  -1.78169166537  0.150885285566
C   -0.490639305191  -3.10776425284  0.378373165709
O   0.885185971215  -2.68320149909  -1.74994885889
C   0.314291593195  0.74218328913  -1.52165137638
H   -0.293066961158  0.57052310257  -2.41250325843
O   -0.689039175796  0.682371812787  -0.443402727625
C   -1.81586525788  0.00219725146675  -0.811291150787
C   -2.68836650355  -0.34452846362  0.286366591599
C   -2.38330865424  0.0799176849121  1.58530190292
C   -3.25500244622  -0.259734920751  2.63931612702
C   -4.40777125885  -0.993954835274  2.37768657498
C   -4.69172069009  -1.42420819669  1.07338910959
C   -3.82869996562  -1.08541513996  0.0241358165614
O   -2.05462098949  -0.324753800778  -1.95985851138
C   0.945504269383  2.16381230951  -1.51396827332
H   0.438036711844  2.03865579837  1.54780291085
H   1.98801535726  2.01553441599  2.41427123747
H   1.15368802155  0.482091020035  2.11172826581
H   4.36371227706  2.46349799521  -1.37555108631
H   3.2638997501  1.70131108378  -2.5221909954
H   4.54805044408  0.480183936798  -0.0212398804367
H   4.19135540261  -0.373083957282  -1.55460216336
H   -0.987588619882  -3.13662942774  1.34439818333
H   0.343120194659  -3.79356987643  0.340999813323
H   -1.10920626961  -3.33090108706  -0.478249126884
H   -1.48330839864  0.663755535234  1.75915453766
H   -3.03706354995  0.0682475356703  3.64746086827
H   -5.0958971028  -1.24544031498  3.17777349216
H   -5.56761367542  -2.0220294063  0.869412337735
H   -4.04745719835  -1.37442405016  -0.993687132846
H   0.208855157036  2.87965222369  -1.14164530793
H   1.20509576461  2.46145633438  -2.53236328751
26 
Comment: Nicotine
N          1.09030       -1.86840       -1.63320
N         -0.95720       -6.00860       -0.57840
C         -0.26770       -2.44700       -1.67220
C         -1.19560       -1.29470       -1.24500
C         -0.27870       -0.09420       -1.05700
C          0.93630       -0.43730       -1.89520
C         -0.40740       -3.66810       -0.78760
C          2.01130       -2.50100       -2.56890
C         -0.13410       -3.59730        0.57120
C         -0.81170       -4.88230       -1.31190
C         -0.27220       -4.73480        1.35890
C         -0.68310       -5.90520        0.74140
H         -0.53390       -2.71140       -2.70580
H         -1.90740       -1.08290       -2.05290
H         -1.77920       -1.48630       -0.33840
H         -0.00020        0.00020       -0.00010
H         -0.75260        0.84120       -1.36860
H          1.81540        0.13530       -1.58390
H          0.73550       -0.23470       -2.95490
H          2.13470       -3.56350       -2.33380
H          1.67350       -2.41570       -3.60790
H          3.00380       -2.04340       -2.49320
H          0.18670       -2.66840        1.03420
H         -1.03910       -4.99890       -2.36680
H         -0.06500       -4.70620        2.42250
H         -0.80620       -6.82010        1.31150
53
Comment: Fentanyl
O   -1.94026735319  2.27546054069  2.59344346673
C   -0.703074715771  2.3106691273  2.73199715775
C   -0.120671816801  2.57848887072  4.12182211491
C   -1.09239059203  3.09515756133  5.17197415082
N   0.0982826273799  2.04752086484  1.63231756889
C   -0.645858134311  1.52332833336  0.436422091899
C   0.0532457712387  1.45264550788  -0.940118655931
C   1.00896498396  0.250603292701  -1.12900261534
N   0.381715203018  -1.02189001087  -0.79073281189
C   -0.152813424036  -0.974515409942  0.569064772576
C   -1.22245579267  0.115487408046  0.706087223944
C   -0.458699744039  -1.6096098175  -1.84554078068
C   -0.550456803471  -3.148125357  -1.72247757791
C   -1.20612613021  -3.77868465501  -2.95336778951
C   -1.26836828622  -5.18387592322  -3.0643718207
C   -1.87604754721  -5.78573670623  -4.16167067509
C   -2.4495923601  -5.00408280708  -5.16614523997
C   -2.41320771659  -3.60668242729  -5.06329042659
C   -1.79558073212  -3.02612987183  -3.97228360117
C   1.48300506724  2.38871735557  1.6632954849
C   1.90479749074  3.65951044401  1.20159270526
C   3.25760161965  4.00406075109  1.23823731723
C   4.19225013544  3.09913921759  1.7621163046
C   3.76999961186  1.85388792088  2.24743038413
C   2.42218883099  1.48502673422  2.20225645871
H   0.673110554593  3.31526332618  3.9774304377
H   0.354975756141  1.65514286993  4.48556003527
H   -1.58537080727  4.03287440112  4.88212979269
H   -0.571269449478  3.27600786682  6.11900737698
H   -1.87270458652  2.36241650135  5.37252589592
H   -1.46707708531  2.24296117301  0.396529608978
H   0.560986647973  2.39323291712  -1.17597903057
H   -0.738584363813  1.34500557515  -1.69514673451
H   1.88689121485  0.361930304298  -0.471236107601
H   1.36550121464  0.195301012201  -2.16548274637
H   0.682696998672  -0.777190555172  1.25172173559
H   -0.58124862136  -1.956237685  0.827817136152
H   -1.66873824077  0.0872733870601  1.70258000041
H   -2.01566174491  -0.111784885815  -0.0279050392347
H   0.0193311405693  -1.39112964645  -2.80328129618
H   -1.44553358254  -1.1407142291  -1.85028708895
H   -1.13062671413  -3.40990751627  -0.829315397751
H   0.455346588923  -3.54830987968  -1.57297311609
H   -0.841494908597  -5.82135011916  -2.29223826632
H   -1.90889671543  -6.86651626597  -4.23936347628
H   -2.92760317587  -5.47517145251  -6.01710144156
H   -2.85772116685  -2.99171159298  -5.83688553634
H   -1.76691881121  -1.93895445096  -3.90083742436
H   1.14875280053  4.34443629393  0.815848976053
H   3.58186330723  4.97093040011  0.868355951864
H   5.24271452502  3.36604298748  1.79978128512
H   4.50835027653  1.17090731897  2.65584764602
H   2.08609945625  0.503945319967  2.55984672558
70
Comment: Fullerene 70
C   3.28265150711  2.02857631109  -1.40077143206
C   4.0095314353  1.05232535774  -0.727331159497
C   4.00922312792  1.01587999236  0.775893760079
C   4.00994909466  -0.42485164542  1.20527997201
C   2.47476637911  3.042952308  -0.626814319575
C   3.28396277185  1.95812191376  1.49562581408
C   2.47273458917  1.66631987893  -2.62215885352
C   4.00874055417  -0.365381919425  -1.22650894163
C   4.0091190091  -1.27873168754  -0.0319203046577
C   3.28260126829  -0.704795793384  -2.3629347984
C   3.28275294805  -0.818289107202  2.32386279618
C   2.47597903565  3.00926007661  0.7719179459
C   2.47276794863  1.53238738458  2.69475943523
C   3.28399649715  -2.46466293505  -0.0602821136314
C   2.47250886323  0.192993247162  3.09827566633
C   2.47477785491  -2.09413561972  2.29466056844
C   1.21716977581  3.28467771382  -1.36411723957
C   2.47389437363  0.346950029121  -3.0854050969
C   1.21564318019  2.44416176266  -2.58371031201
C   1.21847406983  3.21786962618  1.51621060709
C   1.21176766002  2.30595630697  2.68113532838
C   1.21545129074  -0.457936398941  3.52438454749
C   1.21723555723  -1.85552859025  3.03361692726
C   2.47629266947  -2.88948722364  1.14409062459
C   -0.000131785209547  3.55257855174  -0.662446184668
C   -0.000224034033511  3.51921623953  0.831369504498
C   -0.000224138353966  1.72162281275  3.15859456354
C   -0.000233713866094  0.293014735373  3.59302556973
C   0.000151778063923  -2.4850770786  2.62379347061
C   1.21890925366  -3.49581193514  0.664807684883
C   -1.21715995462  3.28433757247  -1.36416025526
C   0.000364849305989  1.87701384127  -3.08140190439
C   -1.21857151698  3.21778614603  1.51633565409
C   -1.21259144157  2.30601003871  2.68154970226
C   -1.21569049616  -0.458434543362  3.52467624639
C   -1.21697040174  -1.85565414377  3.03352001307
C   3.16821164285e-05  -3.33707739507  1.39616211782
C   -2.4747552501  3.04237300664  -0.626799158721
C   -1.21522120431  2.4435509492  -2.58376464813
C   -2.47608712304  3.00886488198  0.771844713748
C   -2.47396846343  1.53223434838  2.69702821906
C   -2.47284251406  0.192618364497  3.09886737185
C   -2.47462093949  -2.09429031426  2.29469462131
C   -1.21851205926  -3.49599113064  0.664777913847
C   2.47312591875  -1.97925223829  -2.3950742204
C   2.47244203089  -2.82558567293  -1.27970604523
C   1.2127012359  -0.286970576026  -3.52903907957
C   1.21250050907  -3.44300084797  -0.813422625269
C   0.000337808459683  0.466321899508  -3.57154396089
C   -3.28250752984  2.02793883531  -1.40086362582
C   -2.47232064626  1.66588589454  -2.62210866048
C   -3.28401501915  1.95769393228  1.49604539254
C   -3.28297847826  -0.818852458394  2.32439305917
C   -2.47593553329  -2.88951196025  1.14414233338
C   -1.21309135589  -3.44336725907  -0.813628021863
C   1.21726563845  -1.70960745185  -3.12141221027
C   -0.000117643167492  -3.25158752635  -1.54307869192
C   -1.21179469626  -0.287025928997  -3.52884794282
C   -4.00948655069  1.05181225196  -0.727178157569
C   -2.4725843145  0.345760017057  -3.0838112793
C   -4.00942168082  1.01561271261  0.776173628403
C   -4.00985147304  -0.425184594031  1.20582524279
C   -3.28361451125  -2.46469330935  -0.0604690920501
C   -2.47350817557  -2.827019498  -1.28133218142
C   -9.42450041604e-05  -2.35495579148  -2.73710001831
C   -1.21755114173  -1.70944908727  -3.12175345626
C   -4.00830520767  -0.365508410905  -1.22642035062
C   -3.28258214761  -0.704934725278  -2.36300510303
C   -4.00889932196  -1.27874715051  -0.0315137446994
C   -2.47335745768  -1.97928699245  -2.39550582562
16
Comment: Indole. http://webbook.nist.gov/cgi/cbook.cgi?Spec=C120729&Index=0&Type=IR
C          2.20061       -0.05170        0.01989
C          1.71286       -1.37384        0.07532
C          0.36077       -1.64390        0.07667
C         -0.53376       -0.56613        0.02117
C          1.34810        1.03004       -0.03547
C         -0.02966        0.76215       -0.03443
C         -1.96761       -0.48684        0.00619
C         -2.31647        0.84625       -0.05645
H          3.28342        0.11106        0.02123
H          2.43248       -2.19776        0.11800
H         -0.01878       -2.66902        0.11961
H          1.72532        2.05600       -0.07854
H         -2.64361       -1.33706        0.03893
H         -3.31159        1.28995       -0.08431
N         -1.14106        1.62325       -0.08190
H         -1.10104        2.60757       -0.12590
39 
Comment: http://pubs.acs.org/doi/suppl/10.1021/acs.jpca.6b12464/suppl_file/jp6b12464_si_001.pdf
C   4.25020553484  -0.0836674084748  1.10334720937
C   3.02253097152  -0.164952025044  0.439260581381
C   2.71712570498  -1.30247909036  -0.299486604919
C   3.64711247491  -2.35445840539  -0.38656621557
C   4.86369893428  -2.26599266775  0.300535166133
C   5.16173384642  -1.11693938296  1.04993971797
N   2.20338579095  0.941137277042  0.594541929723
C   0.950838475252  1.04113338577  0.0675692356635
C   0.19893234884  2.30831933621  0.476995759583
C   -0.865467090573  2.7873549791  -0.531227593433
C   -1.95861645766  1.74851201569  -0.877047477015
C   -2.72276251077  1.25285904148  0.356781839178
C   -3.97289674357  0.42815860801  0.00835787126725
C   -3.75276739457  -0.800871825659  -0.879832392076
C   -2.85209811756  -1.85280597654  -0.227235473156
N   -1.57158709249  -1.92055659642  -0.695017002905
O   -0.667660753889  -2.71262249096  0.0392042388365
O   0.482912443568  0.180302939611  -0.651555694408
O   -3.24743400984  -2.64346489067  0.614539354435
H   4.4470406351  0.831169987794  1.65585277999
H   1.76833202593  -1.35949558542  -0.790735579091
H   3.44269214385  -3.25348373529  -0.972402154072
H   5.57745669489  -3.07988127566  0.251510573154
H   6.10685894471  -1.04304546934  1.58108983124
H   2.60669960709  1.66391548316  1.17185403051
H   -0.273642913579  2.11002532808  1.44564221265
H   0.953272770691  3.07766686893  0.654174646811
H   -0.385249368543  3.11552748652  -1.45992619515
H   -1.34566089438  3.66592162683  -0.0934994662593
H   -1.50772004779  0.907900951406  -1.4103835991
H   -2.67195595231  2.20903657545  -1.56278382812
H   -3.06503688756  2.1261388063  0.91004584952
H   -2.06280575556  0.682369156319  1.03625102252
H   -4.68267798457  1.06968544403  -0.503506006905
H   -4.46219107699  0.110615531223  0.938328984337
H   -3.30829440541  -0.528398148684  -1.84579870022
H   -4.69465754885  -1.31244171953  -1.04453880995
H   -1.08167087222  -1.07635286201  -0.942358131991
H   -1.24324256586  -3.38648451969  0.477916351714
40
Comment: Kun's optimized morphine
C   1.52700324089  -1.9311594361  1.68185702504
C   1.61844703303  -1.35977559021  2.97429919468
C   1.03886311678  -0.111623849805  3.16738597694
C   0.327025668441  0.447871140906  2.10580337023
C   -0.583826488101  2.07279925158  0.732363699214
C   0.506858507517  3.06551994586  0.298515126354
C   1.5078942329  2.54891631628  -0.689571180686
C   1.34088432007  1.4382575911  -1.38350332408
C   0.115709517395  -0.787107736715  -1.90096130654
C   0.912485056759  -1.74397134587  -0.890709044539
C   0.871139964513  -1.31335218195  0.569579142929
C   0.15870970636  -0.18364485898  0.912158731539
C   -0.670189029996  0.725221398717  -0.0252108348231
C   0.0174025249573  0.72073725455  -1.43692860025
C   -2.14671788092  0.236294736728  -0.282689317199
C   -2.23602465422  -1.12935332166  -0.987904231273
C   -1.41535125163  -2.56384738155  -2.62618653616
O   1.12933834026  0.634847495972  4.2912257219
O   1.16095692977  3.60090410155  1.46977544272
O   -0.173512423423  1.70008684958  2.09798207603
N   -1.30484876038  -1.20659107447  -2.12896618237
H   2.00731245544  -2.88344710182  1.51213986715
H   2.14658116063  -1.84345792124  3.80194577466
H   -1.53159209109  2.57368489334  0.83973255662
H   -0.0165851520899  3.93833679625  -0.0775411297488
H   2.41793833536  3.1163722198  -0.777253375268
H   2.15136706293  0.999164015839  -1.97223039476
H   0.612650327224  -0.831211331446  -2.88107262279
H   0.416334169586  -2.71652712097  -0.929645669768
H   1.96261027206  -1.88518095743  -1.19041366109
H   -0.637454526721  1.24934287093  -2.15743038677
H   -2.7123684805  0.223121601674  0.65436188773
H   -2.59990968341  0.977965134237  -0.94100630588
H   -2.00027811907  -1.9631944018  -0.309685819609
H   -3.23486242975  -1.29922260269  -1.39196761566
H   -2.41058648608  -2.72806388396  -3.0624506826
H   -1.31264710081  -3.31403165859  -1.83308019588
H   -0.676421408085  -2.8183842306  -3.40541656646
H   0.692180092546  1.47858891238  4.05763300738
H   0.862170368422  3.02336837456  2.1987285937
50
Comment: Totally unoptimized Heroin
C   1.1964730337  -2.54980881149  1.16215043553
C   1.14291018444  -1.87780395759  2.4008100519
C   0.513745346275  -0.644760654895  2.49876990043
C   -0.0810159247337  -0.0962486595067  1.36241130965
C   -0.96890871797  1.32581204525  -0.191462868128
C   -0.0335623674105  2.29376113811  -0.903192682111
C   1.2217366806  1.71756476173  -1.5128824783
C   1.14636669791  0.535337282038  -2.10934969702
C   -0.0171497071106  -1.69769432393  -2.5717219139
C   0.752110101683  -2.55081881201  -1.44882689894
C   0.608416518775  -2.01385762497  -0.0254727763543
C   -0.138222983879  -0.87755380824  0.192126164667
C   -0.945278461811  -0.081879364356  -0.843930839452
C   -0.176320756195  -0.174929418038  -2.20497686153
C   -2.37498058796  -0.668885193803  -1.12152061076
C   -2.38417619838  -2.09094458175  -1.74155919263
C   -1.48742044172  -3.51522395937  -3.4355325253
O   0.468518407557  0.205562004629  3.55436540059
O   0.313304306163  3.26362210991  0.124571226989
O   -0.56401316262  1.16547327825  1.23558862585
N   -1.41774926681  -2.17235616144  -2.86450543536
H   1.70085749046  -3.49891590509  1.08875142521
H   1.58155037902  -2.25172813932  3.30683326494
H   -1.96735362601  1.78035552657  -0.180953039853
H   -0.557607726235  2.93525484242  -1.61344788157
H   2.11717445454  2.31030325173  -1.5147674165
H   2.02308035583  0.0717500940593  -2.55387611615
H   0.540375379251  -1.76160795254  -3.51595318415
H   0.310541929962  -3.5553172926  -1.4277197952
H   1.82304455296  -2.66733376558  -1.669561626
H   -0.798922240309  0.305200640852  -2.99038584318
H   -2.98547876111  -0.631885859091  -0.212672245021
H   -2.81898667757  0.00114162498878  -1.86428547494
H   -2.14291853434  -2.86953639848  -1.01100786593
H   -3.37784046966  -2.3064310255  -2.13665933517
H   -2.48882900656  -3.72485918234  -3.85273623424
H   -1.28231226718  -4.27975691106  -2.67565141295
H   -0.755597837789  -3.65154636731  -4.25003833135
C   0.969149997765  -0.305942675067  4.70584095962
C   0.73567739781  4.47148512537  -0.318826104012
C   1.22875246951  0.80982134307  5.65797645737
H   1.98004299497  0.501380134811  6.3721467867
H   0.308303956861  1.04425845922  6.17120603652
H   1.55154634602  1.66227427757  5.07007743069
C   1.01114962702  5.43524814108  0.800500464444
H   0.456478705917  6.35318269836  0.631368304546
H   2.07021430416  5.68264624371  0.844922365567
H   0.682030358342  4.95184460594  1.71557422914
O   0.981560050007  -1.46873868411  5.03838392392
O   0.866802445553  4.74968836316  -1.48803520189
18
Comment: http://pubs.acs.org.proxy.library.nd.edu/doi/pdf/10.1021/ja200849g
N         -3.04894       -0.80906        0.51178
C         -1.99326        0.22388        0.23490
C         -0.59291       -0.42564        0.13353
O         -0.40448       -1.64192        0.26542
H         -2.15067        0.81661       -0.71058
H         -1.92339        1.04067        1.00790
H         -2.63264       -1.77920        0.57666
H         -3.47155       -0.55808        1.41693
H         -3.70371       -0.77448       -0.28273
N          0.44445        0.42126       -0.11317
C          1.78897       -0.16121       -0.21634
C          2.74109        1.03101       -0.49832
O          2.31628        2.15496       -0.58787
H          2.01623       -0.68358        0.72589
H          1.78342       -0.91136       -1.02232
H          0.51089        1.42217       -0.25237
O          4.05347        0.78391       -0.64090
H          4.41614        1.60758       -0.79666
