13
Comment: 1
O         0.0000000000    0.0000000000    0.8492128728
C        -1.1632929071   -0.1308327777    0.4324223978
C         1.1632929071    0.1308327777    0.4324223978
C        -0.7346259630    0.2236410241   -0.9968837260
C         0.7346259630   -0.2236410241   -0.9968837260
H         1.9457241493   -0.5301623500    0.8222309425
H        -1.9457241493    0.5301623500    0.8222309425
H        -1.5379846429   -1.1646052731    0.4872641642
H         1.5379846429    1.1646052731    0.4872641642
H        -0.8035498629    1.3047058757   -1.1598559217
H         0.8035498629   -1.3047058757   -1.1598559217
H        -1.3435613066   -0.2721204143   -1.7567192931
H         1.3435613066    0.2721204143   -1.7567192931

13
Comment: 2
O         0.0000000000    0.0000000000    0.9492128728
C        -1.1632929071   -0.1308327777    0.4324223978
C         1.1632929071    0.1308327777    0.4324223978
C        -0.7346259630    0.2236410241   -0.9968837260
C         0.7346259630   -0.2236410241   -0.9968837260
H         1.9457241493   -0.5301623500    0.8222309425
H        -1.9457241493    0.5301623500    0.8222309425
H        -1.5379846429   -1.1646052731    0.4872641642
H         1.5379846429    1.1646052731    0.4872641642
H        -0.8035498629    1.3047058757   -1.1598559217
H         0.8035498629   -1.3047058757   -1.1598559217
H        -1.3435613066   -0.2721204143   -1.7567192931
H         1.3435613066    0.2721204143   -1.7567192931

13
Comment: 3
O         0.0000000000    0.0000000000    1.0492128728
C        -1.1632929071   -0.1308327777    0.4324223978
C         1.1632929071    0.1308327777    0.4324223978
C        -0.7346259630    0.2236410241   -0.9968837260
C         0.7346259630   -0.2236410241   -0.9968837260
H         1.9457241493   -0.5301623500    0.8222309425
H        -1.9457241493    0.5301623500    0.8222309425
H        -1.5379846429   -1.1646052731    0.4872641642
H         1.5379846429    1.1646052731    0.4872641642
H        -0.8035498629    1.3047058757   -1.1598559217
H         0.8035498629   -1.3047058757   -1.1598559217
H        -1.3435613066   -0.2721204143   -1.7567192931
H         1.3435613066    0.2721204143   -1.7567192931

13
Comment: 4
O         0.0000000000    0.0000000000    1.1492128728
C        -1.1632929071   -0.1308327777    0.4324223978
C         1.1632929071    0.1308327777    0.4324223978
C        -0.7346259630    0.2236410241   -0.9968837260
C         0.7346259630   -0.2236410241   -0.9968837260
H         1.9457241493   -0.5301623500    0.8222309425
H        -1.9457241493    0.5301623500    0.8222309425
H        -1.5379846429   -1.1646052731    0.4872641642
H         1.5379846429    1.1646052731    0.4872641642
H        -0.8035498629    1.3047058757   -1.1598559217
H         0.8035498629   -1.3047058757   -1.1598559217
H        -1.3435613066   -0.2721204143   -1.7567192931
H         1.3435613066    0.2721204143   -1.7567192931

13
Comment: 5
O         0.0000000000    0.0000000000    1.2492128728
C        -1.1632929071   -0.1308327777    0.4324223978
C         1.1632929071    0.1308327777    0.4324223978
C        -0.7346259630    0.2236410241   -0.9968837260
C         0.7346259630   -0.2236410241   -0.9968837260
H         1.9457241493   -0.5301623500    0.8222309425
H        -1.9457241493    0.5301623500    0.8222309425
H        -1.5379846429   -1.1646052731    0.4872641642
H         1.5379846429    1.1646052731    0.4872641642
H        -0.8035498629    1.3047058757   -1.1598559217
H         0.8035498629   -1.3047058757   -1.1598559217
H        -1.3435613066   -0.2721204143   -1.7567192931
H         1.3435613066    0.2721204143   -1.7567192931

13
Comment: 6
O         0.0000000000    0.0000000000    1.3492128728
C        -1.1632929071   -0.1308327777    0.4324223978
C         1.1632929071    0.1308327777    0.4324223978
C        -0.7346259630    0.2236410241   -0.9968837260
C         0.7346259630   -0.2236410241   -0.9968837260
H         1.9457241493   -0.5301623500    0.8222309425
H        -1.9457241493    0.5301623500    0.8222309425
H        -1.5379846429   -1.1646052731    0.4872641642
H         1.5379846429    1.1646052731    0.4872641642
H        -0.8035498629    1.3047058757   -1.1598559217
H         0.8035498629   -1.3047058757   -1.1598559217
H        -1.3435613066   -0.2721204143   -1.7567192931
H         1.3435613066    0.2721204143   -1.7567192931

13
Comment: 7
O         0.0000000000    0.0000000000    1.4492128728
C        -1.1632929071   -0.1308327777    0.4324223978
C         1.1632929071    0.1308327777    0.4324223978
C        -0.7346259630    0.2236410241   -0.9968837260
C         0.7346259630   -0.2236410241   -0.9968837260
H         1.9457241493   -0.5301623500    0.8222309425
H        -1.9457241493    0.5301623500    0.8222309425
H        -1.5379846429   -1.1646052731    0.4872641642
H         1.5379846429    1.1646052731    0.4872641642
H        -0.8035498629    1.3047058757   -1.1598559217
H         0.8035498629   -1.3047058757   -1.1598559217
H        -1.3435613066   -0.2721204143   -1.7567192931
H         1.3435613066    0.2721204143   -1.7567192931

13
Comment: 8
O         0.0000000000    0.0000000000    1.5492128728
C        -1.1632929071   -0.1308327777    0.4324223978
C         1.1632929071    0.1308327777    0.4324223978
C        -0.7346259630    0.2236410241   -0.9968837260
C         0.7346259630   -0.2236410241   -0.9968837260
H         1.9457241493   -0.5301623500    0.8222309425
H        -1.9457241493    0.5301623500    0.8222309425
H        -1.5379846429   -1.1646052731    0.4872641642
H         1.5379846429    1.1646052731    0.4872641642
H        -0.8035498629    1.3047058757   -1.1598559217
H         0.8035498629   -1.3047058757   -1.1598559217
H        -1.3435613066   -0.2721204143   -1.7567192931
H         1.3435613066    0.2721204143   -1.7567192931

13
Comment: 9
O         0.0000000000    0.0000000000    1.6492128728
C        -1.1632929071   -0.1308327777    0.4324223978
C         1.1632929071    0.1308327777    0.4324223978
C        -0.7346259630    0.2236410241   -0.9968837260
C         0.7346259630   -0.2236410241   -0.9968837260
H         1.9457241493   -0.5301623500    0.8222309425
H        -1.9457241493    0.5301623500    0.8222309425
H        -1.5379846429   -1.1646052731    0.4872641642
H         1.5379846429    1.1646052731    0.4872641642
H        -0.8035498629    1.3047058757   -1.1598559217
H         0.8035498629   -1.3047058757   -1.1598559217
H        -1.3435613066   -0.2721204143   -1.7567192931
H         1.3435613066    0.2721204143   -1.7567192931
