62
Comment: b3lyp/6-31g(2df,p)
H        13.0677918347   -0.2623818464   -0.0518248037
C        12.1708865915    0.3545408030    0.0633997328
H        12.2174432765    0.8289978096    1.0500899906
H        12.2161626781    1.1517059862   -0.6871353242
C        10.8934898363   -0.4754377203   -0.0911700793
H        10.8907204372   -0.9640473280   -1.0746552935
H        10.8898888567   -1.2870264546    0.6487535897
C         9.6140824069    0.3536984934    0.0647346137
H         9.6180368676    0.8431390970    1.0489782386
H         9.6165462934    1.1670048628   -0.6747589028
C         8.3289833678   -0.4666654685   -0.0879750637
H         8.3252172548   -0.9559115920   -1.0721726524
H         8.3266943083   -1.2795472201    0.6518409656
C         7.0513991994    0.3649965385    0.0688168395
H         7.0575042896    0.8577928836    1.0512031814
H         7.0522575904    1.1753802746   -0.6737312857
C         5.7648612640   -0.4546312322   -0.0773618410
H         5.7617009366   -0.9544596211   -1.0561901152
H         5.7600860417   -1.2596382080    0.6710587148
C         4.4886049384    0.3810410045    0.0677999952
H         4.4990876336    0.8943502899    1.0395718637
H         4.4872240215    1.1759881709   -0.6914351693
C         3.2010191258   -0.4405638722   -0.0550309383
H         3.2022627213   -0.9774700837   -1.0140122289
H         3.1907806815   -1.2168957689    0.7233061074
C         1.9257233094    0.4024963110    0.0488030484
H         1.9441198518    0.9768897920    0.9856485754
H         1.9182956192    1.1477518791   -0.7594848380
C         0.6375203055   -0.4252715059   -0.0081783299
H         0.6495777162   -1.0578158966   -0.9070080051
H         0.6154966078   -1.1174130182    0.8455776479
C        -0.6375050289    0.4246819902   -0.0098857120
H        -0.6162357968    1.1193039724    0.8418981196
H        -0.6488667703    1.0546566237   -0.9105157690
C        -1.9257102013   -0.4029763190    0.0483070562
H        -1.9186191254   -1.1488337372   -0.7594329686
H        -1.9437419069   -0.9766724830    0.9855881223
C        -3.2009959521    0.4400790947   -0.0555722891
H        -3.1908835352    1.2161303821    0.7230445115
H        -3.2020621143    0.9773351119   -1.0143600372
C        -4.4886078339   -0.3815550205    0.0667380015
H        -4.4874148333   -1.1758084773   -0.6932282388
H        -4.4989455575   -0.8957650521    1.0380371117
C        -5.7648161509    0.4543492267   -0.0774066426
H        -5.7598990865    1.2585584885    0.6718797818
H        -5.7617097502    0.9552531606   -1.0556865877
C        -7.0514196769   -0.3652938710    0.0680323712
H        -7.0525148318   -1.1748293727   -0.6754522042
H        -7.0574109305   -0.8592399579    1.0498420642
C        -8.3289068119    0.4667232225   -0.0875489617
H        -8.3263460543    1.2787547882    0.6532128176
H        -8.3252494896    0.9571399328   -1.0711643523
C        -9.6141216781   -0.3535733432    0.0644600940
H        -9.6169589760   -1.1659587096   -0.6760574436
H        -9.6179089112   -0.8442715815    1.0480782090
C       -10.8933763301    0.4760403471   -0.0900075792
H       -10.8894138164    1.2866285435    0.6510246315
H       -10.8907400813    0.9660228451   -1.0728100195
C       -12.1709557069   -0.3537945921    0.0637271678
H       -12.2169748832   -1.1495590059   -0.6882522315
H       -12.2171421478   -0.8300660991    1.0495612605
H       -13.0677042295    0.2636628336   -0.0498441880
