49
Comment: 
O   -2.11764730794  -0.207407408898  -5.38896533004
C   -3.08347068903  -0.77538302617  -4.63023200093
O   -3.0491600635  -1.94033622908  -4.33541079698
C   -4.15628708472  0.136661524464  -4.18649573363
C   -1.35787542973  2.1535443115  -3.59054546891
C   -2.30549490388  1.99969569126  -2.60316078547
C   -3.37190526832  2.86737424294  -2.24990222135
C   -3.97891709731  3.89929462008  -2.93981691569
C   -4.42783414999  1.36531323569  -4.64094677862
C   -3.71662734277  2.15877992211  -5.72200512007
C   -3.77107423431  3.6381656446  -5.48179742069
C   -0.402471249329  3.37008980236  -5.46269843581
H   -0.270265502876  4.32442505357  -5.95336727252
C   0.16735991065  2.12670105087  -6.08470918586
C   1.4335331885  1.62047191512  -5.42091956379
C   2.4606845529  2.43713238515  -5.16237197681
C   3.71731442775  2.08281592967  -4.5433112489
C   3.98753062492  0.853979055352  -4.06547968536
C   5.23711197759  0.471239049501  -3.44492268655
C   5.3285173616  -0.827039403297  -2.92051098393
C   6.48796971687  -1.26373723108  -2.31022040624
C   7.58785520545  -0.413369014892  -2.21892439171
C   7.51030371339  0.87119996564  -2.74293272189
C   6.34542759142  1.31994943908  -3.35107660841
C   -1.05362990135  3.36700752305  -4.2756603472
C   -3.97873095216  4.30143942022  -4.32650649505
H   -1.53490470754  -0.925470939747  -5.65945619285
H   -0.76670689015  1.27976863464  -3.83056459294
H   -2.24496930177  1.08295731086  -2.02533965141
H   -3.79476981825  2.67382437525  -1.26709377052
H   -4.59464143153  4.54734132293  -2.32038970208
H   -4.19516833813  1.95461705814  -6.69142245737
H   -2.68634006222  1.85859822602  -5.88044523612
H   -0.55983471575  1.31212646757  -6.04578317421
H   0.380068090258  2.3349658054  -7.13961829994
H   1.48008760882  0.560224472268  -5.20975430272
H   2.39463824423  3.48601614878  -5.4381207866
H   4.43123290313  2.8933293918  -4.4783623298
H   3.23445731425  0.0704147622598  -4.1242183421
H   4.46761266059  -1.47805084302  -2.99860063398
H   6.54171472066  -2.26377378894  -1.89909902942
H   8.4976559877  -0.750230393678  -1.74087997635
H   8.36627957301  1.53083282976  -2.67400196322
H   6.32312583682  2.32729209587  -3.75226710156
H   -4.80834308249  -0.301558221439  -3.43930326313
H   -5.31906158129  1.84973704454  -4.24333571764
H   -3.56707755571  4.25860357149  -6.34777789051
H   -4.21616379163  5.36173913361  -4.43312347347
H   -1.36550875678  4.30988806683  -3.83739152964
49
Comment: 
H   -0.492457688114  -0.27000545327  1.26166085183
H   -1.88587162375  1.19355003868  -1.36519976276
H   1.11518898073  0.77354691086  -0.895062177724
H   0.111744296829  -3.53513378827  -2.55178557047
H   0.645125343261  -1.47292608817  -1.11823542691
H   -2.25122129959  -1.01026759783  -1.90242331289
H   0.495683643343  -1.98813052931  2.64771356539
H   3.09071146611  -2.32933995281  -2.88106167305
H   1.26655582627  2.54521998504  0.0603676806563
H   -2.75289789896  -0.843328367261  0.367933894386
H   2.6759387175  4.00633163606  1.02914031954
H   0.072341293633  -0.917551326138  -2.68749407019
H   -0.732626600037  -4.88358301466  -1.84417906816
H   2.13306871871  -3.44490696536  0.809598298226
H   -1.66606724586  3.35357167117  -0.444636587034
H   -1.4000275004  5.28870205625  0.551203522236
H   3.20980663656  6.14354695962  2.14581745324
H   -0.497927865775  -4.27371244087  2.71955956497
H   0.546113043628  -5.00039044724  0.0217362874263
H   -2.21868152649  -4.90960588642  1.09669908713
H   -3.35028543944  -3.15128564723  -0.152723004354
H   -0.853021351809  7.38991445349  1.67142255749
H   -2.31282918694  -3.26042010598  -2.18646723537
H   1.43370730184  7.83925755309  2.47711846335
C   -0.114761892532  -0.873176687858  -1.60947716496
C   0.0861567300291  0.527105990668  -1.12367310272
C   -0.838718728932  -1.28932919841  1.16973904523
C   -1.4602388192  -1.46934019161  -1.31121382167
C   2.60560593467  -2.55895649786  -1.08797723865
C   1.74069455236  -3.34756229234  -0.195094912424
C   -1.90233736904  -1.51506622253  0.197425728246
C   -0.31438616075  -2.24547785334  1.97248498027
C   -0.89356202808  1.43837182281  -1.00665457703
C   0.682062592318  -4.08359460596  -0.552344769284
C   0.391227897746  3.19437500737  0.0941031723663
C   -0.354861374897  -3.87935565545  -1.62752201216
C   -0.767487090139  2.74910704361  -0.424001992434
C   -0.85888170912  -3.55216656607  1.99179257193
C   1.90799787595  4.75348099516  1.1758703495
C   0.610384351907  4.48118049846  0.716074321446
C   -1.81051953808  -3.90823336923  1.08434496927
C   -2.27594771931  -3.02571700234  0.0216228513163
C   -0.385094494504  5.44897979731  0.894422400526
C   -1.58909668579  -3.01311684573  -1.40257335672
C   -0.0786595488264  6.64653598157  1.52836067302
C   1.2075675942  6.90338213071  1.9830591972
C   2.20388749957  5.94778109718  1.79988556361
O   3.4227778379  -1.76191986  -0.714002540064
O   2.40412025131  -2.81034116954  -2.40535399273
49
Comment: 
H   -0.374432200674  -0.965784509807  1.25276919842
H   0.405680806876  2.38805385518  -0.874053043134
H   0.471685868375  -0.598859702461  -1.53274713128
H   -4.03469668123  -0.567767416446  -1.14032234663
H   -1.8790169787  -0.420448362922  -1.71599032717
H   -1.72356829913  2.30216984677  -0.365018350849
H   -0.830801964841  -1.03267649082  3.67918697381
H   -2.8226699119  -3.3396562722  -1.71035513754
H   2.59244039529  -0.586708550657  -1.60355330693
H   -0.88131750532  1.4272102467  1.58361657401
H   4.5427775231  -1.75252061509  -1.73770416426
H   -1.65927485571  1.1674211341  -2.38954692863
H   -5.3000558849  0.0539258647585  -0.0978422795006
H   -2.422939441  -2.5317162587  1.59797078336
H   2.73294016942  2.35218605494  -0.672154316699
H   4.81495768848  2.38761016996  -0.597739933623
H   7.00371967951  -1.94579499375  -1.59162853984
H   -3.28042785663  -0.563975070789  4.36662248829
H   -4.5529012607  -1.8265881576  1.18825676449
H   -4.77504398141  0.216572161129  2.57669071706
H   -3.16943420146  2.12132247477  2.08184982807
H   7.24309274737  2.17379669386  -0.457904939234
H   -4.06674050451  2.0628094161  -0.3061729988
H   8.35667489753  0.0262675243632  -0.944030902922
C   -1.42240312787  0.53897039798  -1.5212209504
C   0.0601765768561  0.385936808049  -1.38869621155
C   -1.38721024618  -0.666962339706  1.51097819752
C   -1.99402970077  1.24915313061  -0.312588650854
C   -2.07381339232  -2.30418231944  -0.354638747107
C   -2.42636175202  -1.65580218961  0.938190959573
C   -1.6534280705  0.797006323713  1.13563451642
C   -1.6292883372  -0.741376169337  3.0101626666
C   0.857310572259  1.42142878667  -1.07592749811
C   -3.8185095636  -1.03758337076  1.02438573472
C   3.05436451822  0.340026603619  -1.26868209218
C   -4.22244596002  -0.127090897671  -0.166411941569
C   2.2909295165  1.4151707657  -0.987068450487
C   -2.88495317204  -0.483602727437  3.36471425904
C   5.14293881654  -0.897692993289  -1.45663749876
C   4.49521709087  0.315320974552  -1.17304897867
C   -3.76970987322  -0.0305740642986  2.23108459419
C   -3.10561970736  1.17268707645  1.55427767845
C   5.26855269088  1.42657755556  -0.814280137851
C   -3.50349184572  1.19228940759  0.0406015456704
C   6.64967134284  1.31200023401  -0.736651264068
C   7.28002719562  0.104720383574  -1.01182572593
C   6.51749711409  -1.00339119207  -1.3747236431
O   -0.968290756158  -2.41949881472  -0.80932927777
O   -3.14777817754  -2.85038041112  -0.948497764231

