3
Comment: {}
H        -6.3155237180    1.6019060726   -0.3700476131
O        -6.7028302287    1.7266594306    0.5091716751
H        -7.1719988789    0.8763312875    0.6927246395

6
Comment: {}
H         -4.08181        1.94474       -0.27714
O         -3.63245        1.52442        0.45708
H         -4.10382        0.70065        0.58808
H         -10.44425        1.21460       -0.28411
O         -10.67816        1.49686        0.59913
H         -11.64021        1.52842        0.58066


6
Comment: {}
H         -4.08181        1.94474       -0.27714
O         -3.63245        1.52442        0.45708
H         -4.10382        0.70065        0.58808
H         -0.44425        1.21460       -0.28411
O         -0.67816        1.49686        0.59913
H         -1.64021        1.52842        0.58066

9
Comment: {}
H   -4.08181227395  1.94474320265  -0.277137457064
O   -3.63244500728  1.52442121963  0.457080961242
H   -4.10382324131  0.700652136092  0.588076127701
H   -0.444252151421  1.21460097428  -0.284114699303
O   -0.678158451865  1.49685713636  0.599128845811
H   -1.64021452537  1.52841891239  0.580663624613
H   -0.444252151421  4.21460097428  -0.284114699303
O   -0.678158451865  4.49685713636  0.599128845811
H   -1.64021452537  4.52841891239  0.580663624613
