18
Comment: http://pubs.acs.org.proxy.library.nd.edu/doi/pdf/10.1021/ja200849g
N         -3.04894       -0.80906        0.51178
C         -1.99326        0.22388        0.23490
C         -0.59291       -0.42564        0.13353
O         -0.40448       -1.64192        0.26542
H         -2.15067        0.81661       -0.71058
H         -1.92339        1.04067        1.00790
H         -2.63264       -1.77920        0.57666
H         -3.47155       -0.55808        1.41693
H         -3.70371       -0.77448       -0.28273
N          0.44445        0.42126       -0.11317
C          1.78897       -0.16121       -0.21634
C          2.74109        1.03101       -0.49832
O          2.31628        2.15496       -0.58787
H          2.01623       -0.68358        0.72589
H          1.78342       -0.91136       -1.02232
H          0.51089        1.42217       -0.25237
O          4.05347        0.78391       -0.64090
H          4.41614        1.60758       -0.79666
