40
Comment: morphine
C        -0.2986209691   -2.7202633144    0.9392606742
C        -1.6155008808   -2.8885604287    0.5098272750
C        -2.2900432322   -1.8824647888   -0.1926093825
C        -1.5623756474   -0.7381802676   -0.4874813836
C        -1.0461935386    1.4551851602   -0.8986782719
C        -1.4775536125    2.4469741055    0.2129577414
C        -0.9617591971    2.0646561125    1.5841503993
C         0.2548890560    1.5509712790    1.7586812994
C         2.2747578417    0.2393884869    0.8063912299
C         1.7620253873   -1.1777568869    1.2251928614
C         0.4232372428   -1.5587403845    0.6270775583
C        -0.2309261083   -0.6252480788   -0.1554411962
C         0.2877648305    0.7177482739   -0.6007993981
C         1.1362240978    1.2671407541    0.5705367175
C         1.1803608628    0.6223056240   -1.8566056112
C         2.4473176020   -0.1960124086   -1.6004388974
C         4.4208801361   -0.3795723203   -0.2118234138
O        -3.6060736826   -2.0358702344   -0.5176298550
O        -2.8757820259    2.6543078830    0.1871425825
O        -2.0748953194    0.4134119645   -1.0420610109
N         3.1303418140    0.2568801268   -0.3912315513
H         0.1585068291   -3.4972158568    1.5446877594
H        -2.1669575941   -3.7882963324    0.7602088982
H        -1.0340253060    1.9735172156   -1.8597651462
H        -1.0284352582    3.4157650485   -0.0536140879
H        -1.6179333688    2.3007720245    2.4164759412
H         0.6335962717    1.3370250240    2.7550930083
H         2.8983204569    0.6139455548    1.6266864805
H         2.5360852458   -1.9172500290    0.9874249645
H         1.6655337174   -1.2063767529    2.3183832626
H         1.6361235874    2.1930743179    0.2529447545
H         0.6182286926    0.1751590927   -2.6837527625
H         1.4597652313    1.6396489720   -2.1578242986
H         2.1927869350   -1.2713889271   -1.5568910313
H         3.1356570643   -0.0756480011   -2.4445956202
H         5.0536615328   -0.1667572862   -1.0802184564
H         4.3777347599   -1.4794192887   -0.1011213149
H         4.9161035086    0.0284610274    0.6753092828
H        -3.8874065214   -1.2559365182   -1.0089196609
H        -3.2660183509    1.7911727666    0.0002650974

