10
Comment: Products Truhlar NEB 1
H         -0.80380       -1.11861        2.73043
C         -1.40608       -0.95120        1.85302
H         -2.01391       -0.06490        1.77798
H         -1.40053       -1.67007        1.05064
C          1.90839        0.00485        0.62456
C          2.69993       -1.06072        0.72528
H          1.41381        0.25694       -0.30360
H          2.87856       -1.71489       -0.11720
H          3.19450       -1.31282        1.65344
H          1.72976        0.65902        1.46704
10
Comment: Products Truhlar NEB 1
H         -1.43315       -0.25973       -1.24705
H          1.53008       -0.60812       -1.10042
H          0.24061        1.40659       -0.39208
C         -1.36853       -0.01106       -0.18748
C          1.10266       -0.51750       -0.11200
C          0.04149        0.49371        0.15070
H         -2.11952        0.74940        0.03090
H         -1.61564       -0.90765        0.38154
H          1.33817       -1.28819        0.60802
H          0.05894        0.76175        1.22885
10
Comment: the Transition state 1 
C         -0.47213        0.64593       -0.00004
C         -1.38262       -0.36389       -0.00000
H         -0.23204        1.16457       -0.91726
H         -0.23234        1.16476        0.91717
H         -1.72713       -0.80981        0.92252
H         -1.72694       -0.81013       -0.92244
C          1.61201       -0.24219        0.00003
H          2.19518        0.66867       -0.00127
H          1.58942       -0.80962       -0.91863
H          1.59024       -0.80760        0.91997
