12
Comment: quad water
  H   -3.0770648    2.6322209    0.4942655
  O   -3.3177354    1.7080256    0.6780850
  H   -3.9731732    1.4894821    0.0149663
  H   -1.2737969   -0.6342580   -1.0260575
  O   -1.2852263   -0.2434560   -0.1517543
  H   -2.1535382    0.1875103   -0.0803928
  H   -1.1783326    3.3063771    0.0950068
  O   -1.8709450    3.9882621    0.0659418
  H   -1.6234322    4.6156688    0.7463096
  H    1.5629953    1.3046458    0.0178820
  O    0.6549592    1.5801812    0.1475489
  H    0.2183466    0.8186168    0.5648967

12
Comment: tensormol optimized quad water 
H   -2.84871116568  2.41647891746  0.305098393939
O   -3.36677192813  1.59422559668  0.225211632899
H   -3.79925024111  1.68479875338  -0.626752748758
H   -2.06776098644  0.342749673507  0.334325619296
O   -1.2464269376  -0.152811110508  0.50938341023
H   -1.34475709412  -0.443957178853  1.41835974715
H   -0.819931402139  3.17035094062  -0.0712417178525
O   -1.60880658148  3.70673106083  0.131278608912
H   -1.35542228837  4.20005688977  0.9142352442
H   0.785847472292  1.64391704338  -0.995240937898
O   0.467871604592  1.90596084137  -0.128595669048
H   -0.0175418799931  1.12111701153  0.188262464264


12
Comment: qchem optimized quad water
H   -3.58526363838  1.79832343934  0.871470289936
O   -2.93129779723  1.6572030526  0.184589504739
H   -2.31155354818  2.39694376339  0.307945338075
H   -1.99446344883  -1.37821993437  0.457372363523
O   -1.503944166  -0.756991492605  -0.0832199494837
H   -2.00656857398  0.0729624250668  -0.0133160493389
H   -1.11523270394  4.51446307129  0.103359379727
O   -1.14368610092  3.7542711513  0.687601576518
H   -0.255226219443  3.36353849673  0.585457251052
H   2.04627952781  2.82893190676  0.826362026852
O   1.3553501632  2.69688730933  0.176533914286
H   1.29916364304  1.73071352853  0.101529574861
H   0.274223942896  -0.381268000151  0.126150862932
O   1.21499933168  -0.137358617831  0.0825375931551
H   1.51440117229  -0.574870958701  -0.717106906091

15
Comment:  tensormol  optimized pend water
H   -3.58526363838  1.79832343934  0.871470289936
O   -2.93129779723  1.6572030526  0.184589504739
H   -2.31155354818  2.39694376339  0.307945338075
H   -1.99446344883  -1.37821993437  0.457372363523
O   -1.503944166  -0.756991492605  -0.0832199494837
H   -2.00656857398  0.0729624250668  -0.0133160493389
H   -1.11523270394  4.51446307129  0.103359379727
O   -1.14368610092  3.7542711513  0.687601576518
H   -0.255226219443  3.36353849673  0.585457251052
H   2.04627952781  2.82893190676  0.826362026852
O   1.3553501632  2.69688730933  0.176533914286
H   1.29916364304  1.73071352853  0.101529574861
H   0.274223942896  -0.381268000151  0.126150862932
O   1.21499933168  -0.137358617831  0.0825375931551
H   1.51440117229  -0.574870958701  -0.717106906091

15
Comment: qchem optimized pend water
  H   -2.2771404    2.3523391    0.4352300
  O   -2.9005737    1.6000564    0.3491850
  H   -3.5603862    1.9070655   -0.2729957
  H   -1.7151464   -0.9686481   -0.9834853
  O   -1.4632242   -0.6492431   -0.1167406
  H   -2.0287849    0.1365399    0.0359278
  H   -0.2300700    3.3153435    0.3736130
  O   -1.1421398    3.6403928    0.5301031
  H   -1.0995707    4.0610888    1.3896621
  H    1.8253200    2.8629235   -0.5944880
  O    1.3435304    2.6488084    0.2049142
  H    1.3032364    1.6686855    0.2114655
  H    1.4406407   -0.5071847    0.9289963
  O    1.1537765   -0.0382530    0.1446222
  H    0.2104179   -0.2841707    0.0373736

30
Comment: 10WATERS http://pubs.acs.org/doi/suppl/10.1021/jp104865w/suppl_file/jp104865w_si_001.pdf
O   -0.343360230413  2.07645896483  -0.908072834936
H   -0.872415893955  2.89542508627  -0.841519437975
H   -1.05485569317  1.4571985375  -1.22768907511
O   1.99508451653  1.3661092685  -1.33281789745
H   1.24616295824  1.68773252939  -0.744658706879
H   2.70504813804  1.2023593668  -0.669463049767
O   -2.1425267322  0.234753341748  -1.07961731374
H   -2.74248440962  0.00272400721028  -1.81192812539
H   -1.51374563754  -0.559430652876  -1.13310889888
O   1.25007504495  -1.12867231989  -1.53117574736
H   1.23079269311  -0.116168850002  -1.46604879798
H   1.70772300161  -1.21426997254  -2.39797727299
O   1.82095937794  1.23237544606  1.06310953898
H   1.70801531581  0.29045307193  0.957865435839
H   2.45615754582  1.5761186431  1.633326792
O   1.96986849354  -1.3459025357  0.905343133729
H   1.0944366661  -1.64702527236  1.2091739373
H   1.90683275518  -1.46099991113  -0.0678618518333
O   -2.48803559396  -0.0584961733128  1.47041296539
H   -2.70261375965  0.03916262461  0.516898446664
H   -2.00441632017  0.786461486276  1.64110063709
O   -0.518258982058  -1.76092964053  1.21666992517
H   -0.887697515048  -2.19727463176  2.00499159863
H   -0.985537716099  -0.853020856647  1.26756276352
O   -1.06379111142  -2.20196665541  -1.2650808709
H   -0.141134347451  -1.98773926193  -1.51715491297
H   -0.98697561649  -2.35307101467  -0.291376327636
O   -0.523148330916  1.59447167587  1.56660495453
H   0.232741048262  1.29145538629  2.13871853431
H   -0.0626988359655  1.5765642418  0.652219733186
