15
Comment:
  O   -1.1061572    2.8390555    0.8612073
  H   -1.2804365    2.2949673    0.0526675
  H   -1.3590393    2.2500298    1.6156650
  O   -2.4904279    5.0536112   -1.2563241
  H   -1.7122477    4.5615039   -1.6204726
  H   -3.0576542    4.3526883   -0.8472073
  O    0.2600375    6.1618799   -3.2521441
  H   -0.3244158    5.5972397   -3.8179870
  H    1.1751890    5.8287496   -3.4308182
  O    0.2600375    6.1618799   -5.2521441
  H   -0.3244158    5.5972397   -5.8179870
  H    1.1751890    5.8287496   -5.4308182
  O    0.2600375    7.1618799   -11.2521441
  H   -0.3244158    6.5972397   -11.8179870
  H    1.1751890    6.8287496   -11.4308182

15
Comment:
  O   -1.1061572    2.8390555    0.8613073
  H   -1.2804365    2.2949673    0.0526675
  H   -1.3590393    2.2500298    1.6156650
  O   -2.4904279    5.0536112   -1.2563241
  H   -1.7122477    4.5615039   -1.6204726
  H   -3.0576542    4.3526883   -0.8472073
  O    0.2600375    6.1618799   -3.2521441
  H   -0.3244158    5.5972397   -3.8179870
  H    1.1751890    5.8287496   -3.4308182
  O    0.2600375    6.1618799   -5.2521441
  H   -0.3244158    5.5972397   -5.8179870
  H    1.1751890    5.8287496   -5.4308182
  O    0.2600375    7.1618799   -11.2521441
  H   -0.3244158    6.5972397   -11.8179870
  H    1.1751890    6.8287496   -11.4308182
