13
Comment: 1_1
O         0.0000000000    0.0000000000    1.2492128728
C        -1.1632929071   -0.1308327777    0.4324223978
C         1.1632929071    0.1308327777    0.4324223978
C        -0.7346259630    0.2236410241   -0.9968837260
C         0.7346259630   -0.2236410241   -0.9968837260
H         1.9457241493   -0.5301623500    0.8222309425
H        -1.9457241493    0.5301623500    0.8222309425
H        -1.5379846429   -1.1646052731    0.4872641642
H         1.5379846429    1.1646052731    0.4872641642
H        -0.8035498629    1.3047058757   -1.1598559217
H         0.8035498629   -1.3047058757   -1.1598559217
H        -1.3435613066   -0.2721204143   -1.7567192931
H         1.3435613066    0.2721204143   -1.7567192931

7
Comment: 1_2
O         0.0000000000    0.0000000000    0.8542679510
C        -0.7335346255    0.0000000000   -0.3680086020
C         0.7335346255    0.0000000000   -0.3680086020
H        -1.2721124282    0.9197377384   -0.5919168534
H        -1.2721124282   -0.9197377384   -0.5919168534
H         1.2721124282   -0.9197377384   -0.5919168534
H         1.2721124282    0.9197377384   -0.5919168534

12
Comment: 2_1
C         0.0000000000    0.0000000000    0.1246633614
C         0.0000000000    0.0000000000    1.4569657873
H        -0.9230812240    0.0000000000    2.0282915564
H         0.9230812240    0.0000000000    2.0282915564
C        -1.2749766652    0.0000000000   -0.6780320471
C         1.2749766652    0.0000000000   -0.6780320471
H        -2.1595153961    0.0000000000   -0.0362193501
H        -1.3275126233    0.8784461397   -1.3341773667
H        -1.3275126233   -0.8784461397   -1.3341773667
H         2.1595153961    0.0000000000   -0.0362193501
H         1.3275126233   -0.8784461397   -1.3341773667
H         1.3275126233    0.8784461397   -1.3341773667

10
Comment: 2_2
C         0.0000000000    0.0000000000    0.1896125000
O         0.0000000000    0.0000000000    1.3982125000
C        -1.2900000000    0.0000000000   -0.6143875000
C         1.2900000000    0.0000000000   -0.6143875000
H        -2.1479000000    0.0000000000    0.0588125000
H         2.1479000000    0.0000000000    0.0588125000
H        -1.3324000000    0.8795000000   -1.2670875000
H        -1.3324000000   -0.8795000000   -1.2670875000
H         1.3324000000   -0.8795000000   -1.2670875000
H         1.3324000000    0.8795000000   -1.2670875000

14
Comment: 3_1
C         0.0001118566    0.3739022003    0.0000000000
H        -0.0000053888    1.4733033754    0.0000000000
C         1.4604470165   -0.0959508923    0.0000000000
C        -0.7303417028   -0.0953862506    1.2646454138
C        -0.7303417028   -0.0953862506   -1.2646454138
H         1.5172831787   -1.1914442883    0.0000000000
H        -0.7580723682   -1.1908489322    1.3151797874
H        -0.7580723682   -1.1908489322   -1.3151797874
H         1.9959126353    0.2636691251    0.8852217438
H         1.9959126353    0.2636691251   -0.8852217438
H        -1.7649982574    0.2634385129    1.2856112615
H        -0.2314186384    0.2650752884    2.1704652123
H        -0.2314186384    0.2650752884   -2.1704652123
H        -1.7649982574    0.2634385129   -1.2856112615

26
Comment: 3_2
C         0.8910991489    0.8910991489    0.8910991489
C         0.0000000000    0.0000000000    1.7787307945
C        -0.8910991489   -0.8910991489    0.8910991489
H         0.6220280202   -0.6220280202    2.4350834867
H        -0.6220280202    0.6220280202    2.4350834867
C        -1.7787307945    0.0000000000    0.0000000000
C        -0.8910991489    0.8910991489   -0.8910991489
H        -2.4350834867   -0.6220280202   -0.6220280202
H        -2.4350834867    0.6220280202    0.6220280202
C         0.0000000000    1.7787307945    0.0000000000
H         0.6220280202    2.4350834867   -0.6220280202
H        -0.6220280202    2.4350834867    0.6220280202
C         1.7787307945    0.0000000000    0.0000000000
H         1.5240732915    1.5240732915    1.5240732915
C         0.0000000000   -1.7787307945    0.0000000000
H        -1.5240732915   -1.5240732915    1.5240732915
C         0.8910991489   -0.8910991489   -0.8910991489
H         0.6220280202   -2.4350834867    0.6220280202
H        -0.6220280202   -2.4350834867   -0.6220280202
H         1.5240732915   -1.5240732915   -1.5240732915
C         0.0000000000    0.0000000000   -1.7787307945
H         2.4350834867    0.6220280202   -0.6220280202
H         2.4350834867   -0.6220280202    0.6220280202
H         0.6220280202    0.6220280202   -2.4350834867
H        -1.5240732915    1.5240732915   -1.5240732915
H        -0.6220280202   -0.6220280202   -2.4350834867

16
Comment: 4
C         0.4550177572   -0.2721462248    0.0000000000
C         0.0340813035    1.0599017894    0.0000000000
C        -1.3317231910    1.3487347561    0.0000000000
C        -2.2779990871    0.3314140698    0.0000000000
C        -1.8483210597   -0.9971232623    0.0000000000
C        -0.4952386361   -1.3006026931    0.0000000000
O         1.7567318207   -0.6714445555    0.0000000000
C         2.7605931336    0.3239011505    0.0000000000
H         0.7511267837    1.8704719340    0.0000000000
H        -1.6490785378    2.3866000816    0.0000000000
H        -3.3365739467    0.5658272662    0.0000000000
H        -2.5741867844   -1.8039326509    0.0000000000
H        -0.1432065226   -2.3258834307    0.0000000000
H         3.7147399246   -0.2058917820    0.0000000000
H         2.7024315975    0.9599437558   -0.8930000000
H         2.7024315975    0.9599437558    0.8930000000

6
Comment: 5_1
C        -1.1924039300   -0.0000421860    0.2372902522
C         0.2529851384   -0.0000108638    0.0525929447
N         1.3991966492    0.0000073553   -0.0896772550
H        -1.6346411246    0.8877432935   -0.2226267188
H        -1.6346301753   -0.8877015358   -0.2228813913
H        -1.4381338324   -0.0001957082    1.3023589638

6
Comment: 5_2
N         0.3162889474   -0.0002029893    0.0000290672
C         1.4874820056   -0.0000307431    0.0000272151
C        -1.0987926546    0.0001037162   -0.0000244278
H        -1.4753418102   -0.4642211327   -0.9155676536
H        -1.4753871483   -0.5605060473    0.8599173793
H        -1.4748390906    1.0253193336    0.0555290497

14
Comment: 6_1
H         2.5310037935   -2.1624448776    0.0078010469
C         1.9997481517   -1.2168297517    0.0052235467
C         2.7080030560   -0.0162765777    0.0099847029
H         3.7925243971   -0.0253150966    0.0162607851
C         2.0197508633    1.1958227944    0.0065237053
H         2.5666425177    2.1324699505    0.0101358970
C         0.6311379077    1.2141457252   -0.0016235035
H         0.0917542537    2.1540867472   -0.0044870283
C        -0.0878803602    0.0068719155   -0.0059246264
C         0.6110310953   -1.2122970615   -0.0029220707
H         0.0561438302   -2.1431687572   -0.0068055886
N        -2.6749014939    0.0132266191   -0.0057551618
C        -1.5117787041    0.0187148443   -0.0135952371
O        -3.8824685184    0.0112586301   -0.0009409608

14
Comment: 6_2
N         0.0001985368   -0.0003681659   -0.0847049899
O         0.0006998483   -0.0011525718   -1.4334480425
C         0.1487635744   -1.4064667354    0.4232524074
H         1.0870464386   -1.7855878960    0.0204825232
H         0.1433442652   -1.4518513393    1.5176669718
H        -0.6790015946   -1.9757807420    0.0027199326
C        -1.2921495971    0.5737333154    0.4218119849
H        -2.0897933080   -0.0471687690    0.0158012479
H        -1.3298074835    0.5977681168    1.5161765227
H        -1.3704217708    1.5764388688    0.0034891905
C         1.1432767989    0.8325973723    0.4218297833
H         0.9995097411    1.8349792780    0.0204691665
H         1.1880316463    0.8500432301    1.5161295316
H         2.0503059437    0.4028092090   -0.0011159040

9
Comment: 7
C         1.2332217011   -0.1626016660    0.0000000000
C        -0.1346048392    0.4530977970    0.0000000000
C        -1.2812283269   -0.2193232275    0.0000000000
H        -1.3056729579   -1.3058354258    0.0000000000
H        -2.2416554333    0.2852394251    0.0000000000
H        -0.1617954490    1.5424363951    0.0000000000
H         1.1822975153   -1.2553198618    0.0000000000
H         1.8095905892    0.1527186043   -0.8786722933
H         1.8095905892    0.1527186043    0.8786722933

9
Comment: 8_1
C         1.2332217011   -0.1626016660    0.0000000000
C        -0.1346048392    0.4530977970    0.0000000000
C        -1.2812283269   -0.2193232275    0.0000000000
H        -1.3056729579   -1.3058354258    0.0000000000
H        -2.2416554333    0.2852394251    0.0000000000
H        -0.1617954490    1.5424363951    0.0000000000
H         1.1822975153   -1.2553198618    0.0000000000
H         1.8095905892    0.1527186043   -0.8786722933
H         1.8095905892    0.1527186043    0.8786722933

7
Comment: 8_2
C         0.2363205277   -0.3964023946    0.0000000000
C        -1.1694260930    0.1484439400    0.0000000000
O         1.2347239574    0.2758299103    0.0000000000
H         0.2980809968   -1.5096952826    0.0000000000
H        -1.1598549679    1.2395293141    0.0000000000
H        -1.7086921481   -0.2243612930   -0.8793000000
H        -1.7086921481   -0.2243612930    0.8793000000

14
Comment: 9_1
C         0.0640867558   -1.4223742861   -0.1149819510
C         0.1042901549   -0.7247992286   -1.2574214050
C        -0.1042901549    0.7247992286   -1.2574214050
C        -0.0640867558    1.4223742861   -0.1149819510
C         0.2385091113    0.7313148103    1.1938315327
C        -0.2385091113   -0.7313148103    1.1938315327
H         0.1837974765   -2.5017598323   -0.1156725673
H         0.2725516529   -1.2237299284   -2.2071650278
H        -0.2725516529    1.2237299284   -2.2071650278
H        -0.1837974765    2.5017598323   -0.1156725673
H        -0.2106374954    1.2715632266    2.0336141318
H         1.3277415870    0.7648268148    1.3610907412
H         0.2106374954   -1.2715632266    2.0336141318
H        -1.3277415870   -0.7648268148    1.3610907412

14
Comment: 9_2
C         1.4974223099    0.0000000000    0.0000000000
C        -1.4974223099    0.0000000000    0.0000000000
C        -0.6654265710    1.2532280944    0.0000000000
C         0.6654265710    1.2532280944    0.0000000000
C        -0.6654265710   -1.2532280944    0.0000000000
C         0.6654265710   -1.2532280944    0.0000000000
H         1.2063688789   -2.1965904409    0.0000000000
H        -1.2063688789   -2.1965904409    0.0000000000
H         1.2063688789    2.1965904409    0.0000000000
H        -1.2063688789    2.1965904409    0.0000000000
H         2.1757028052    0.0000000000    0.8686580213
H        -2.1757028052    0.0000000000    0.8686580213
H         2.1757028052    0.0000000000   -0.8686580213
H        -2.1757028052    0.0000000000   -0.8686580213

20
Comment: 10_1
C        -0.5109810251   -1.0026135964   -1.2078376752
N         0.3350028288   -1.1304071813    0.0018380145
C        -0.5161271459   -1.0005921187    1.2076441015
C        -1.2863580888    0.3529422945   -1.2539821310
C        -0.9010181626    1.1628840069   -0.0026044339
C        -1.2933005521    0.3540566465    1.2473868665
C         0.6273092626    1.3421980569    0.0015690292
H        -1.4023115389    2.1350524262   -0.0044846593
H        -1.1987450781   -1.8538952305   -1.2052769939
H         0.1360689163   -1.1202077927   -2.0817131638
H         0.1274890851   -1.1153443175    2.0844362701
H        -1.2028573432   -1.8527014012    1.2044055726
H        -1.0349981236    0.9145648687   -2.1601855514
H        -2.3680958961    0.1842755331   -1.2734468978
H        -2.3749458124    0.1841674284    1.2601939654
H        -1.0483311349    0.9170643425    2.1544891591
H         0.9747211016    1.8976558252    0.8806385009
H         0.9795091753    1.8983100020   -0.8751546188
C         1.2916679520   -0.0360861728    0.0027599455
O         2.4766468249   -0.2152829338    0.0039246040

20
Comment: 10_2
C         0.5047120987    1.4258625355   -0.7320592759
C        -0.3831927543    1.0116155526    0.4677507547
C         0.5233871024    0.4748848781    1.6016936712
C         1.2863905137    0.1850585680   -1.2513743308
C         0.9108434980   -1.0265652930   -0.3719605208
C         1.3312779482   -0.7499915814    1.0854634203
N        -0.5435791653   -1.1792279963   -0.3995992082
H         1.3667162185   -1.9448979175   -0.7483675712
H         1.1913104332    2.2171749495   -0.4124287116
H        -0.1191606131    1.8499899643   -1.5237473649
H        -0.0892480708    0.1989316821    2.4646217554
H         1.1925505614    1.2757808218    1.9338207057
H         1.0279553670   -0.0309317771   -2.2919167133
H         2.3682930260    0.3475960635   -1.2136346736
H         2.4097883086   -0.5666510685    1.1286247608
H         1.1293176708   -1.6346702830    1.6956423824
H        -0.9989024944   -1.9947848032   -0.7777694881
C        -1.3051013109   -0.1177525084    0.0072320901
O        -2.5203363966   -0.0925729803   -0.0039947528
H        -1.0016272312    1.8421224671    0.8103615971

16
Comment: 11_1
C        -0.0169136954   -1.2086287512   -0.0005299980
H        -0.5881357433   -2.1273358087   -0.0007761290
C         1.3644343293   -1.2209489213   -0.0005415237
H         1.8974491907   -2.1664461953   -0.0008322600
C         2.0941974031   -0.0144594636   -0.0001914779
N         3.4590823363   -0.0268108780   -0.0004214628
H         3.9697318081   -0.8904502304    0.0011362579
H         3.9855295473    0.8272889242    0.0016771020
C         1.3856259657    1.2046218130    0.0001544324
H         1.9350085590    2.1407377939    0.0004160092
C         0.0042130267    1.2161291626    0.0001553363
H        -0.5511055562    2.1445047945    0.0004284253
C        -0.6947364644    0.0097544256   -0.0001823817
N        -2.1496762240    0.0223898289   -0.0001413548
O        -2.7147216352    1.1132962702    0.0001871891
O        -2.7332446400   -1.0587157367   -0.0001795682

16
Comment: 11_2
C         1.0188319302   -1.8782679432    0.0003341397
H         1.2647290890   -2.9347567901    0.0004833349
C         2.0451695828   -0.9428968710    0.0002105635
H         3.0789464080   -1.2756767702    0.0002660327
C         1.7673006672    0.4369795485    0.0000171716
N         2.7797342704    1.3614824018    0.0000872685
H         3.7407707018    1.0762853605   -0.0012416603
H         2.5816755425    2.3443586508   -0.0013864924
C         0.4248913321    0.8432760505   -0.0000333573
H         0.1490380555    1.8897222726   -0.0001537329
C        -0.5738864077   -0.1184602026    0.0001007629
C        -0.3157516477   -1.4838641813    0.0002380534
N        -1.9767253377    0.3391125617    0.0000091799
O        -2.1834891360    1.5471272841    0.0001734581
O        -2.8532580050   -0.5155691828   -0.0000489660
H        -1.1331103557   -2.1896561407    0.0003003608

9
Comment: 12_1
O         0.0000000000    0.0000000000    0.5877923077
C        -1.1687000000    0.0000000000   -0.1937076923
C         1.1687000000    0.0000000000   -0.1937076923
H        -2.0215000000    0.0000000000    0.4896923077
H         2.0215000000    0.0000000000    0.4896923077
H        -1.2306000000    0.8915000000   -0.8393076923
H        -1.2306000000   -0.8915000000   -0.8393076923
H         1.2306000000   -0.8915000000   -0.8393076923
H         1.2306000000    0.8915000000   -0.8393076923

8
Comment: 12_2
C         1.3633153844   -0.4016296523    0.0000000000
O         0.4774066000    0.7295875531    0.0000000000
C        -0.8282972272    0.4322943553    0.0000000000
O        -1.2995539995   -0.6714246373    0.0000000000
H         2.3712730391    0.0120980195    0.0000000000
H         1.1996442332   -1.0161102819    0.8886000000
H         1.1996442332   -1.0161102819   -0.8886000000
H        -1.4034912526    1.3708309998    0.0000000000

22
Comment: 13_1
C         0.4718043398    1.3574144115   -0.4694426618
C        -0.4722368255    1.3573279150    0.4697714892
C         1.8784872758    0.9166893774   -0.1742743676
C        -1.8787563630    0.9160380826    0.1746203943
C        -1.7961964489   -0.5401724114   -0.3789928958
C         1.7964497232   -0.5396388412    0.3791204453
C        -0.7357315762   -1.4779513133    0.2646921254
C         0.7362738395   -1.4776888079   -0.2646621946
H         0.1657881269    1.3322233808   -1.5153340370
H        -0.1662367145    1.3325181917    1.5156763481
H         2.4888832173    0.9422279942   -1.0830958957
H         2.3825223831    1.5537925953    0.5620564613
H        -2.4890895953    0.9411997576    1.0834940309
H        -2.3831301659    1.5530439264   -0.5615673217
H        -2.7816105024   -1.0133055715   -0.2796344041
H        -1.5936245192   -0.4892357395   -1.4563266539
H         2.7820149679   -1.0124283945    0.2796528261
H         1.5938880134   -0.4889348045    1.4564696379
H        -0.7266022938   -1.3422951448    1.3546166945
H        -1.1053315676   -2.4982783913    0.1055091509
H         0.7271131930   -1.3419363283   -1.3545730408
H         1.1062087462   -2.4979091765   -0.1055705352

22
Comment: 13_2
C         0.4838178896   -1.6581288538   -0.2337767991
C        -0.7780632509   -1.3635839577    0.6118915760
C         1.7239891419   -0.7870257313    0.0473682167
C        -1.8667056886   -0.5051469582   -0.0566870809
C        -1.3864550665    0.8387462547   -0.6524355566
C        -0.5748588840    1.6515162614    0.3173646922
C         0.7504713209    1.5689575103    0.4435038772
C         1.6592716240    0.6948846339   -0.3888176751
H         0.2395036244   -1.6137027886   -1.3039870182
H         0.7849177829   -2.6961575940   -0.0492350633
H        -0.4737220214   -0.8968896960    1.5552470577
H        -1.2473613162   -2.3151160853    0.8890244518
H         2.5786265984   -1.2457506986   -0.4666079515
H         1.9550784463   -0.8346291333    1.1198821094
H        -2.6529311109   -0.3113031381    0.6842654830
H        -2.3424550281   -1.0812342068   -0.8612183827
H        -2.2637943173    1.4059119850   -0.9844556993
H        -0.7945908148    0.6337206748   -1.5512037134
H        -1.1275229723    2.3013678797    0.9938439207
H         1.2357666936    2.1602041857    1.2178794947
H         2.6748649799    1.1044725850   -0.3459803523
H         1.3647966261    0.7353146991   -1.4459736344

6
Comment: 14_1
C         0.6561839747   -0.0209145273    0.0000000000
O        -0.7515141732    0.1288853990    0.0000000000
H         1.0838595072    0.9854481670    0.0000000000
H         1.0277262299   -0.5476840729    0.8918136704
H         1.0277262299   -0.5476840729   -0.8918136704
H        -1.1408239101   -0.7499970387    0.0000000000

7
Comment: 14_2
C        -0.7054171126    0.0173641982    0.0000000000
N         0.7519971512   -0.1260272195    0.0000000000
H        -1.0821322631    1.0537055847    0.0000000000
H        -1.1175987916   -0.4852387864   -0.8811314208
H        -1.1175987916   -0.4852387864    0.8811314208
H         1.1420762205    0.3469334383    0.8095286086
H         1.1420762205    0.3469334383   -0.8095286086

13
Comment: 16_1
C        -0.1255343500   -1.2283763082    0.0000000000
C         0.0957383621   -0.3166379052   -1.2366967970
C         0.0957383621   -0.3166379052    1.2366967970
C        -0.0431510530    1.0757832816   -0.6657790959
C        -0.0431510530    1.0757832816    0.6657790959
H        -1.1569671987   -1.5949727657    0.0000000000
H         0.5265761855   -2.1052392003    0.0000000000
H         1.0942936288   -0.4550877149   -1.6758790602
H         1.0942936288   -0.4550877149    1.6758790602
H        -0.0969685793    1.9601556182   -1.2916197976
H        -0.0969685793    1.9601556182    1.2916197976
H        -0.6197676676   -0.5231625743    2.0409116286
H        -0.6197676676   -0.5231625743   -2.0409116286

17
Comment: 16_2
C         0.0922718170    1.1272149386    0.3290582495
C         0.0465738055    0.0002496501    1.3884350989
C        -1.1861858087    0.7793288811   -0.5088263465
C         1.2822643370    0.6692294607   -0.5010971590
C         0.0935354803   -1.1269425227    0.3293739990
C        -1.1853047126   -0.7806972240   -0.5086524956
C         1.2830236634   -0.6678659616   -0.5008950729
H         0.1236124096    2.1550811483    0.6926450081
H         0.9187256496    0.0008545772    2.0467367586
H        -0.8725542983   -0.0001908112    1.9843377040
H        -2.0818603399    1.1750985217   -0.0198049444
H        -1.1420406338    1.2038875199   -1.5142290585
H         1.9215590989    1.3287895906   -1.0754449189
H         0.1259988247   -2.1546789247    0.6932292029
H        -2.0805541241   -1.1773806981   -0.0195912179
H        -1.1406092730   -1.2054330581   -1.5139555177
H         1.9230637466   -1.3268733069   -1.0750468734

30
Comment: 17
C        -0.6782503948   -1.2457084397   -0.2209848381
C        -0.6746374396    1.2642449446   -0.1476746227
C        -2.8834096801    0.0088129706   -0.2073876146
C        -2.1471067403    1.2563663926    0.2932280411
C         0.0722952416   -0.0059467754    0.3108367286
C        -2.1484767441   -1.2648047786    0.2250152555
H        -0.6453381614   -1.2493324286   -1.3185553943
H        -0.6317045498    1.3422544787   -1.2425026015
H        -2.9402503407    0.0383875786   -1.3047066549
H        -2.1927069587    1.2864773561    1.3910417537
H        -0.0060867488   -0.0354673218    1.4101346772
H        -2.1940839379   -1.3561005325    1.3193195414
H        -0.1889775952   -2.1670366352    0.1084479254
H        -0.1890119861    2.1605734117    0.2484439385
H        -3.9167666375   -0.0003530605    0.1582344261
H        -2.6467730938    2.1647596125   -0.0627200553
H        -2.6487576213   -2.1517318259   -0.1810052739
C         1.6074876095   -0.0042512603    0.0042616187
C         2.2714913964   -1.2112487693    0.6999451997
C         1.9109978262   -0.0731126101   -1.5057894374
C         2.2572333987    1.2727890371    0.5777516301
H         3.3564796355   -1.1886069271    0.5516199363
H         2.9927591925   -0.0267714552   -1.6748962138
H         3.3485262064    1.2076670707    0.5107890774
H         1.9115325035   -2.1672112392    0.3098671330
H         2.0844188491   -1.1962273580    1.7796086209
H         1.4620713627    0.7620254291   -2.0529929970
H         1.5536565294   -1.0035311134   -1.9574530636
H         1.9988028005    1.4099166728    1.6340783393
H         1.9525146007    2.1726883700    0.0364375618

32
Comment: 18_1
C         0.2472564131    0.6401673377   -0.9005588249
C        -0.2267276668   -1.5522556299    0.1700269663
O         2.0131782111   -1.0366270916   -0.6901134665
C         1.2843152483   -1.7311149901    0.3212895428
C        -0.5972657197   -0.0569776925    0.1829051053
C         1.7380453013    0.3464522936   -0.7318404346
H        -0.0443927506    0.2866514980   -1.8957040879
H        -0.5426475479   -2.0147859692   -0.7728953553
H         1.6063082163   -1.3891497435    1.3152789585
H        -0.2667684819    0.3477873454    1.1494150261
H         0.1162881817    1.7245335266   -0.8806071970
H         1.5701118900   -2.7817049629    0.2165823408
H         2.3097626408    0.7061616547   -1.6007953365
C        -2.1282919759    0.2419758383    0.0917554424
C        -2.3628287049    1.7619951843    0.2138847093
C        -2.7521218681   -0.2528140828   -1.2285563108
C        -2.8569973355   -0.4371161195    1.2693671669
H        -3.4345942263    1.9787296818    0.2793955369
H        -3.8239753105   -0.0269397888   -1.2479656000
H        -3.9150054805   -0.1542022682    1.2754333927
H        -1.9749683452    2.3119813920   -0.6480392891
H        -1.8856791722    2.1662089523    1.1136837754
H        -2.6469197174   -1.3352480349   -1.3520202260
H        -2.3037793304    0.2297925317   -2.1028630138
H        -2.4272229515   -0.1317758711    2.2301677898
H        -2.8133417602   -1.5281824564    1.2108903468
O         2.1744497759    1.0135715258    0.4294655192
C         3.5793878587    1.0039539376    0.5994911152
H         3.7946413868    1.5533600376    1.5188751155
H         4.0850086398    1.5032330910   -0.2411946373
H         3.9732436966   -0.0157145494    0.6836925064
H        -0.7208706222   -2.0954886292    0.9818634014

32
Comment: 18_2
C        -0.4615934241   -0.6832147473    0.1672696140
C         0.3545439532    1.6233294810   -0.3019957315
O        -2.0298267474    1.1663911261    0.0112007020
C        -0.9997693494    2.1187522578    0.2079244880
C         0.7260670476    0.2829580505    0.3651094769
C        -1.7647594134   -0.0536724178    0.6792078938
H        -0.5780324829   -0.9146136433   -0.8966132812
H         0.2957411830    1.5022320558   -1.3899048713
H        -0.9224160703    2.3688365800    1.2807246908
H         0.8040881711    0.4791162368    1.4469911684
H        -0.3133736319   -1.6258046337    0.7013527242
H        -1.3140502099    3.0220584885   -0.3226543989
C         2.1138439600   -0.3017999684   -0.0547977815
C         2.4155834481   -1.5660455446    0.7761600634
C         2.1702187130   -0.6668025180   -1.5507196799
C         3.2210187574    0.7292655222    0.2460589873
H         3.4284131798   -1.9250536842    0.5648901123
H         3.1585800923   -1.0668104019   -1.8015298600
H         4.2086864420    0.2865541724    0.0782037265
H         1.7282309647   -2.3862910983    0.5507717134
H         2.3534541549   -1.3599705374    1.8507948987
H         1.9996331649    0.2032107108   -2.1925068817
H         1.4336149857   -1.4320786074   -1.8129821638
H         3.1815278327    1.0627151140    1.2895456907
H         3.1504534564    1.6133165723   -0.3939556919
H         1.1037957601    2.3944514542   -0.0973215658
H        -1.6718965298    0.1411949775    1.7614302532
O        -2.8858072406   -0.8738341620    0.5713794987
C        -3.2930894597   -1.2236403666   -0.7422930834
H        -4.2572520502   -1.7261428198   -0.6370106236
H        -2.5914004999   -1.9173811977   -1.2247620605
H        -3.4150067297   -0.3390260387   -1.3755169091

10
Comment: 19
C         0.0000000000    0.7433635107    0.3211571364
C         0.0000000000   -0.7433635107    0.3211571364
C         1.1351555498    0.0000000000   -0.3147847068
C        -1.1351555498    0.0000000000   -0.3147847068
H         0.0000000000    1.4411055263    1.1428016186
H         0.0000000000   -1.4411055263    1.1428016186
H         2.0833375407    0.0000000000    0.2183645480
H        -2.0833375407    0.0000000000    0.2183645480
H         1.2366098704    0.0000000000   -1.4024052628
H        -1.2366098704    0.0000000000   -1.4024052628

13
Comment: 20
C        -0.3618364542   -0.7656048296   -0.5000012318
C        -0.3617782930    0.7656452724   -0.5000004424
C        -1.3405531826    0.0000554716    0.3459636462
C         1.0159636578   -0.7832175211    0.1733203522
C         1.0160283953    0.7831571711    0.1733021866
H        -0.6937817160   -1.4495605953   -1.2720404007
H        -0.6936851557    1.4496264503   -1.2720340763
H        -2.3657530480    0.0000985407   -0.0107007142
H        -1.2473285695    0.0000472939    1.4307415108
H         1.8024877594   -1.1923144165   -0.4649499535
H         1.0671277604   -1.2812685680    1.1475587074
H         1.0672671341    1.2812382519    1.1475215029
H         1.8025712360    1.1921618645   -0.4650053840

22
Comment: 21_1
C        -0.5532753928    0.8656026740    0.4956517461
C        -0.7159878338   -0.6812580792    0.6576475187
C        -1.5721592078    0.8009763196   -0.6784119080
C        -2.0656738280   -0.5570197777   -0.1069486915
C         0.8512851687    1.4458610768    0.3286845757
C         0.3445183440   -1.4883893458   -0.1124105281
C         1.7924024475    0.5411127245   -0.4818499987
C         1.7553133739   -0.9019840359    0.0378686632
H        -1.0450479848    1.3608956092    1.3408881079
H        -0.7733406749   -1.0368369559    1.6913636572
H        -1.0818408895    0.6808504622   -1.6492668771
H        -2.2967543038    1.6152759226   -0.7621507843
H        -2.9112395314   -0.4213041430    0.5735635006
H        -2.3114811760   -1.3532576938   -0.8151425839
H         1.2890475322    1.5842135810    1.3271128169
H         0.7939014457    2.4454925401   -0.1205574965
H         0.0944775538   -1.4997914692   -1.1818290753
H         0.3179911839   -2.5346823792    0.2136176366
H         2.8120892158    0.9400796654   -0.4379748629
H         1.5070129505    0.5457936466   -1.5429592649
H         2.4773933953   -1.5218985099   -0.5057718706
H         2.0602953889   -0.9208186800    1.0941602758

22
Comment: 21_2
C        -0.5562308785   -0.7143662284    0.2829389743
C        -0.5562189959    0.7143676904   -0.2829588586
H        -0.4866953092   -0.6302325226    1.3784276331
C        -2.0684913903    0.7810437951    0.0584176314
C         0.6263873010   -1.5342459894   -0.2011788956
C         0.6264148581    1.5342293273    0.2011504899
C         1.8929974574   -0.7432858183    0.2173187938
C         1.8930091976    0.7432476818   -0.2173542265
H        -0.4866863795    0.6302280025   -1.3784475847
H        -2.7256369250    1.3517722640   -0.6023226087
H        -2.2426868686    1.0960460349    1.0926174127
H         0.5913789267   -1.6481135932   -1.2931401963
H         0.6589171268   -2.5439696456    0.2259077921
H         0.5914161935    1.6480991941    1.2931118933
H         0.6589579199    2.5439518152   -0.2259379232
H         2.7905037654   -1.2303296767   -0.1807641939
H         1.9793231849   -0.7904173341    1.3116307453
H         2.7905261359    1.2302756811    0.1807241964
H         1.9793299183    0.7903777502   -1.3116665717
H        -2.7256615313   -1.3517326461    0.6022968018
H        -2.2427004641   -1.0960167158   -1.0926420071
C        -2.0685040460   -0.7810163317   -0.0584419446

19
Comment: 22_1
C         1.0269878203   -0.7004100620    0.4560247453
C         0.9636628676    0.8138942157    0.3850025617
C         1.6939797274    0.0285990855   -0.6811068467
C        -0.2293268496   -1.5272958593    0.2400513369
C        -0.3553556993    1.5158099003    0.0515068317
C        -1.3449998052   -0.7610945624   -0.4878310254
C        -1.5851505893    0.5994210004    0.1752334066
H         1.7007856241   -1.1122227920    1.2028636023
H         1.5979562386    1.3472047404    1.0865362723
H         2.7779378242    0.0653203511   -0.7060690355
H         1.2330025787   -0.0196394971   -1.6635676116
H        -0.6123723339   -1.8369355042    1.2221802134
H         0.0145623253   -2.4510773670   -0.2997609486
H        -0.3108580625    1.9181443275   -0.9690506755
H        -0.4807540396    2.3820739541    0.7098892685
H        -2.2621369686   -1.3599728136   -0.4773890824
H        -1.0849474654   -0.6156857410   -1.5447978330
H        -2.4591171093    1.0946493271   -0.2625102871
H        -1.8157204443    0.4366613125    1.2369410076

19
Comment: 22_2
C         0.8512431351   -0.6581537659   -0.3639434580
C         0.8496972952    0.6600266576    0.3626952621
H         0.6773573482   -0.5062593568   -1.4312155063
C        -0.2266342567   -1.5554290137    0.1966639116
C        -0.2294020712    1.5551160776   -0.1989184994
C        -1.5275137975   -0.7637195494   -0.1729631375
C        -1.5289928290    0.7607511875    0.1694312700
H         0.6755941205    0.5081157879    1.4298801280
H        -0.1296755658   -1.6738412706    1.2820049005
H        -0.2719513103   -2.5602904361   -0.2416231214
H        -0.1313784704    1.6745039043   -1.2840459068
H        -0.2773916827    2.5595911824    0.2400102595
H        -2.4012926948   -1.2258924291    0.3011218931
H        -1.6765934222   -0.8757868658   -1.2550907397
H        -2.4032689146    1.2213615101   -0.3051616570
H        -1.6790878937    0.8721452535    1.2515115964
H         2.7567975151    0.3334249401   -0.8478700427
H         2.7584536089   -0.3264562092    0.8464611083
C         2.1634565473    0.0026191300   -0.0004646562

60
Comment: c60
   C       -1.29209        1.60027        3.32754
   C       -2.46789        0.74601        3.32754
   C       -2.01877       -0.63622        3.32754
   C       -0.56541       -0.63622        3.32754
   C       -0.11630        0.74601        3.32754
   C        1.01265        1.11283        2.59390
   C        1.73933        0.11264        1.82983
   C        1.30811       -1.21452        1.82983
   C        0.13231       -1.59656        2.59390
   C       -0.59437       -2.59675        1.82983
   C       -1.98982       -2.59675        1.82983
   C       -2.71650       -1.59656        2.59390
   C       -3.89230       -1.21452        1.82983
   C       -4.32352        0.11264        1.82983
   C       -3.59684        1.11283        2.59390
   C       -3.59684        2.34913        1.82983
   C       -4.32352        2.11302        0.59352
   C       -4.77263        0.73079        0.59352
   C       -4.77263       -0.00285       -0.59352
   C       -4.32352       -1.38507       -0.59352
   C       -3.89230       -1.97860        0.59352
   C       -2.71650       -2.83286        0.59352
   C       -2.01877       -3.05957       -0.59352
   C       -0.56541       -3.05957       -0.59352
   C        0.13231       -2.83286        0.59352
   C        1.30811       -1.97860        0.59352
   C        1.73933       -1.38507       -0.59352
   C        2.18844       -0.00285       -0.59352
   C        2.18844        0.73079        0.59352
   C        1.73933        2.11302        0.59352
   C        1.30811        2.70654       -0.59352
   C        1.30811        1.94246       -1.82983
   C        1.73933        0.61530       -1.82983
   C        1.01265       -0.38489       -2.59390
   C        1.01265       -1.62119       -1.82983
   C       -0.11630       -2.44142       -1.82983
   C       -1.29209       -2.05938       -2.59390
   C       -2.46789       -2.44142       -1.82983
   C       -3.59684       -1.62119       -1.82983
   C       -3.59684       -0.38489       -2.59390
   C       -4.32352        0.61530       -1.82983
   C       -3.89230        1.94246       -1.82983
   C       -3.89230        2.70654       -0.59352
   C       -2.71650        3.56080       -0.59352
   C       -1.98982        3.32469       -1.82983
   C       -2.71650        2.32450       -2.59390
   C       -2.01877        1.36416       -3.32754
   C       -2.46789       -0.01807       -3.32754
   C       -1.29209       -0.87233       -3.32754
   C       -0.11630       -0.01807       -3.32754
   C       -0.56541        1.36416       -3.32754
   C        0.13231        2.32450       -2.59390
   C       -0.59437        3.32469       -1.82983
   C        0.13231        3.56080       -0.59352
   C       -0.56541        3.78751        0.59352
   C       -2.01877        3.78751        0.59352
   C       -2.46789        3.16936        1.82983
   C       -1.29209        2.78732        2.59390
   C       -0.11630        3.16936        1.82983
   C        1.01265        2.34913        1.82983

10
Comment: acetone
C         0.0000000000    0.0000000000    0.1896125000
O         0.0000000000    0.0000000000    1.3982125000
C        -1.2900000000    0.0000000000   -0.6143875000
C         1.2900000000    0.0000000000   -0.6143875000
H        -2.1479000000    0.0000000000    0.0588125000
H         2.1479000000    0.0000000000    0.0588125000
H        -1.3324000000    0.8795000000   -1.2670875000
H        -1.3324000000   -0.8795000000   -1.2670875000
H         1.3324000000   -0.8795000000   -1.2670875000
H         1.3324000000    0.8795000000   -1.2670875000

10
Comment: propanal
C         1.4420242911   -0.5028918977    0.0000000000
C         0.5451089496    0.7313842637    0.0000000000
C        -0.9333535769    0.4209584748    0.0000000000
O        -1.4034877552   -0.6880227046    0.0000000000
H         2.4972549707   -0.2173055706    0.0000000000
H         1.2517192554   -1.1228501749    0.8800116405
H         1.2517192554   -1.1228501749   -0.8800116405
H         0.7377370457    1.3765498512    0.8702687857
H         0.7377370457    1.3765498512   -0.8702687857
H        -1.5920679345    1.3206141228    0.0000000000

40
Comment: morphine
C        -0.2986209691   -2.7202633144    0.9392606742
C        -1.6155008808   -2.8885604287    0.5098272750
C        -2.2900432322   -1.8824647888   -0.1926093825
C        -1.5623756474   -0.7381802676   -0.4874813836
C        -1.0461935386    1.4551851602   -0.8986782719
C        -1.4775536125    2.4469741055    0.2129577414
C        -0.9617591971    2.0646561125    1.5841503993
C         0.2548890560    1.5509712790    1.7586812994
C         2.2747578417    0.2393884869    0.8063912299
C         1.7620253873   -1.1777568869    1.2251928614
C         0.4232372428   -1.5587403845    0.6270775583
C        -0.2309261083   -0.6252480788   -0.1554411962
C         0.2877648305    0.7177482739   -0.6007993981
C         1.1362240978    1.2671407541    0.5705367175
C         1.1803608628    0.6223056240   -1.8566056112
C         2.4473176020   -0.1960124086   -1.6004388974
C         4.4208801361   -0.3795723203   -0.2118234138
O        -3.6060736826   -2.0358702344   -0.5176298550
O        -2.8757820259    2.6543078830    0.1871425825
O        -2.0748953194    0.4134119645   -1.0420610109
N         3.1303418140    0.2568801268   -0.3912315513
H         0.1585068291   -3.4972158568    1.5446877594
H        -2.1669575941   -3.7882963324    0.7602088982
H        -1.0340253060    1.9735172156   -1.8597651462
H        -1.0284352582    3.4157650485   -0.0536140879
H        -1.6179333688    2.3007720245    2.4164759412
H         0.6335962717    1.3370250240    2.7550930083
H         2.8983204569    0.6139455548    1.6266864805
H         2.5360852458   -1.9172500290    0.9874249645
H         1.6655337174   -1.2063767529    2.3183832626
H         1.6361235874    2.1930743179    0.2529447545
H         0.6182286926    0.1751590927   -2.6837527625
H         1.4597652313    1.6396489720   -2.1578242986
H         2.1927869350   -1.2713889271   -1.5568910313
H         3.1356570643   -0.0756480011   -2.4445956202
H         5.0536615328   -0.1667572862   -1.0802184564
H         4.3777347599   -1.4794192887   -0.1011213149
H         4.9161035086    0.0284610274    0.6753092828
H        -3.8874065214   -1.2559365182   -1.0089196609
H        -3.2660183509    1.7911727666    0.0002650974
