81
Comment: water_tiny_lattice_9.3215
O     -2.217302    2.805476    2.146856
H     -2.260473    3.658861    2.578259
H     -2.256339    3.006951    1.211915
O      2.882900    3.100970    1.607647
H      3.692345    2.965453    2.100256
H      2.851128    2.368656    0.992068
O     -0.382446    1.447602   -0.456106
H     -0.981429    2.191906   -0.397227
H      0.471639    1.807358   -0.216635
O     -2.505667    3.213495   -0.663892
H     -2.358060    4.156399   -0.590549
H     -3.068489    3.117738   -1.432197
O      2.345928    1.716262   -2.572383
H      2.201334    1.252679   -3.397255
H      1.613433    2.329284   -2.510020
O     -4.248341   -3.134296   -1.896143
H     -4.230992   -4.040069   -2.205190
H     -5.171114   -2.883597   -1.939411
O      4.663108    3.585650   -2.505168
H      4.630307    3.226524   -3.391839
H      3.932785    3.167026   -2.049520
O      0.944614   -3.773648    4.478373
H      1.828944   -3.975403    4.172611
H      0.910080   -4.131115    5.365649
O     -1.179212    0.753393    3.973387
H     -1.823145    0.725191    4.681049
H     -1.514684    1.416370    3.369935
O      4.419835    0.288393    2.843339
H      4.169253   -0.557188    3.215404
H      4.749147    0.077991    1.969546
O      3.470152   -4.127259    3.392298
H      3.202164   -4.648032    2.635193
H      4.278795   -4.541062    3.694116
O      0.445691    3.980738   -2.412807
H      0.430469    4.203242   -1.481949
H     -0.467276    4.051812   -2.691503
O      1.818930   -2.268701    0.853994
H      2.572770   -1.679757    0.820734
H      1.292552   -1.943735    1.584443
O     -2.145886   -4.053443    3.578042
H     -1.997915   -3.973406    4.520344
H     -1.601924   -3.367714    3.190600
O      4.457287   -1.658491   -4.306836
H      4.561119   -2.425380   -4.870160
H      3.556599   -1.715237   -3.987812
O      1.570258    1.355553    4.146673
H      0.648866    1.213034    4.363378
H      1.598567    1.330031    3.190232
O      4.259891    2.467154    4.305052
H      3.361676    2.289413    4.584065
H      4.535172    1.666750    3.858058
O     -2.638105   -0.095480   -3.365366
H     -3.289215   -0.019773   -4.062906
H     -2.905306   -0.870177   -2.870713
O      2.412592   -1.557062   -2.161967
H      1.747640   -0.932321   -2.451394
H      2.113423   -1.843387   -1.298978
O     -1.704282   -0.508958    0.948501
H     -1.086230    0.028196    0.452810
H     -1.191583   -0.850423    1.681150
O      0.101826   -1.606758    2.834774
H     -0.365152   -0.971406    3.377442
H      0.569908   -2.159087    3.460924
O     -1.384573   -3.438684    0.411378
H     -0.520274   -3.845407    0.473006
H     -1.250732   -2.542658    0.720333
O     -4.368479   -0.948052    0.234942
H     -4.348813   -1.621953   -0.444546
H     -3.458152   -0.867716    0.519686
O      2.901225    0.939057   -0.021170
H      3.596011    0.289405   -0.128208
H      2.688845    1.212549   -0.913544
O     -1.846815   -3.240590   -3.139473
H     -1.212800   -2.643212   -2.742742
H     -2.642467   -3.125760   -2.619872
O     -0.286712   -0.233482   -2.487986
H     -1.133184   -0.270124   -2.933381
H     -0.420611    0.383491   -1.768509
O      1.020055   -4.651307    0.264673
H      1.257127   -3.753056    0.495267
H      1.686030   -5.191874    0.689524

81
Comment:  optimized
O   2.44590407386  8.05625815299  7.19196520313
H   3.0458222537  8.50662242179  7.79092660627
H   2.69863044312  8.11306538949  6.260931903
O   8.10274214418  8.04904801931  6.86820989209
H   8.93308977042  8.49782422834  7.01903214437
H   8.17763878031  7.42759101744  6.13380160191
O   4.86964289672  6.70871646922  4.79611131889
H   4.36424749325  7.4691798439  4.45816537037
H   5.64399255277  7.02481820124  5.26664296512
O   2.86217645828  9.00929417616  4.54242416789
H   2.42096867737  9.88454886549  4.79470709125
H   2.18154548423  8.58936754554  3.9691600025
O   7.4785462498  6.98593222597  2.64040431077
H   7.15989009015  6.55313681437  1.84432968711
H   6.77925598819  7.61384337741  2.87574766961
O   0.826853818439  1.95879092629  3.45214088949
H   0.616546568424  1.05478376058  3.21673145275
H   0.109740732244  2.47566641666  3.07434320653
O   9.91241578502  8.45070973142  2.62531382937
H   9.73441825053  8.36021118827  1.67284677651
H   9.1763978459  8.17557981612  3.21294658943
O   6.4431333996  1.52626980026  9.71882118942
H   7.45122276561  1.17965411792  9.22966844711
H   6.63982101642  1.27207018687  10.626409753
O   4.24778799201  5.83821733147  9.25799413645
H   3.50559559417  5.81034921936  9.94534451625
H   3.85068953355  6.49824270757  8.69031061627
O   9.58447862383  5.32834183565  7.62191912018
H   9.31475425986  4.63459178509  8.24643795769
H   10.0223237252  4.90530486731  6.86349637041
O   8.2950977481  1.02543234621  8.56260502694
H   8.10068647941  0.51297680724  7.76687378907
H   9.15247739079  0.731297009805  8.95053106896
O   5.59823643178  9.08799316196  2.78439803506
H   5.84906671516  9.2232898154  3.70714179084
H   4.85678545271  9.77949895876  2.71947676997
O   7.00850695102  3.22013838731  5.89682505425
H   7.90592045244  3.52226540366  6.0524178405
H   6.47163408002  3.55112369408  6.62720036528
O   2.82577623496  1.46507242849  9.24088293643
H   3.29212070063  1.45652042789  10.1192118105
H   3.44663843574  1.96222580318  8.68349595601
O   9.28733622542  3.70406884618  1.0196585821
H   9.41464922532  2.79734748637  0.648361144322
H   8.81608116269  3.47007068018  1.83843991735
O   6.9327136952  6.23121678888  9.19810182086
H   5.93658810032  6.14763793932  9.32149933751
H   6.86594049148  6.9443078612  8.55393916443
O   9.48412936559  7.18074570586  9.42446222277
H   8.46199346957  7.27729575113  9.43800612444
H   9.87776369449  6.72320405265  8.56154132631
O   2.50508115267  4.75484727145  1.4991210696
H   1.67453137943  4.9697693265  1.03588420907
H   2.1949234766  4.58338404772  2.4044247496
O   7.48320233863  4.1007113659  3.28761188101
H   6.66120407741  4.29210989434  2.8063612507
H   7.17973896454  3.44465702636  3.92195268508
O   3.58039106371  4.42968280095  5.9017782151
H   3.88439222602  5.29684679883  5.60542417425
H   3.48671649419  4.55557270978  6.85374650317
O   5.01662251921  3.43553726144  8.33568962362
H   4.68336209378  4.31577037118  8.62327568569
H   5.74996509637  3.21079951859  8.90411529437
O   3.71982107402  1.80864248966  5.6226785132
H   4.52543881361  1.27821722756  5.80407427592
H   3.90129307734  2.66882671231  6.0434173813
O   0.98043817484  4.0282521166  5.32739031668
H   1.03485051128  3.2520333183  4.77252610976
H   1.89426947046  4.23192543036  5.59472507036
O   8.2032894274  6.13043761172  5.04389559434
H   8.94886111536  5.52481147069  4.94352604612
H   7.59417517891  6.08230718551  4.29124981005
O   3.25848138329  1.88294692857  2.47871456643
H   3.75907900949  2.69855944056  2.36104036991
H   2.35569828924  2.09202641622  2.80035851966
O   5.00699599751  4.82260039282  2.86023256828
H   4.16385425977  4.80361737537  2.4175748134
H   5.02381376528  5.51650830932  3.54357927987
O   6.18951096259  0.519718622727  5.34201578387
H   6.66181929275  1.36537908485  5.47317433844
H   6.80635506393  -0.0919353221201  5.89431316756

