81
Comment: water_tiny_lattice_9.3215
O     -2.217302    2.805476    2.146856
H     -2.260473    3.658861    2.578259
H     -2.256339    3.006951    1.211915
O      2.882900    3.100970    1.607647
H      3.692345    2.965453    2.100256
H      2.851128    2.368656    0.992068
O     -0.382446    1.447602   -0.456106
H     -0.981429    2.191906   -0.397227
H      0.471639    1.807358   -0.216635
O     -2.505667    3.213495   -0.663892
H     -2.358060    4.156399   -0.590549
H     -3.068489    3.117738   -1.432197
O      2.345928    1.716262   -2.572383
H      2.201334    1.252679   -3.397255
H      1.613433    2.329284   -2.510020
O     -4.248341   -3.134296   -1.896143
H     -4.230992   -4.040069   -2.205190
H     -5.171114   -2.883597   -1.939411
O      4.663108    3.585650   -2.505168
H      4.630307    3.226524   -3.391839
H      3.932785    3.167026   -2.049520
O      0.944614   -3.773648    4.478373
H      1.828944   -3.975403    4.172611
H      0.910080   -4.131115    5.365649
O     -1.179212    0.753393    3.973387
H     -1.823145    0.725191    4.681049
H     -1.514684    1.416370    3.369935
O      4.419835    0.288393    2.843339
H      4.169253   -0.557188    3.215404
H      4.749147    0.077991    1.969546
O      3.470152   -4.127259    3.392298
H      3.202164   -4.648032    2.635193
H      4.278795   -4.541062    3.694116
O      0.445691    3.980738   -2.412807
H      0.430469    4.203242   -1.481949
H     -0.467276    4.051812   -2.691503
O      1.818930   -2.268701    0.853994
H      2.572770   -1.679757    0.820734
H      1.292552   -1.943735    1.584443
O     -2.145886   -4.053443    3.578042
H     -1.997915   -3.973406    4.520344
H     -1.601924   -3.367714    3.190600
O      4.457287   -1.658491   -4.306836
H      4.561119   -2.425380   -4.870160
H      3.556599   -1.715237   -3.987812
O      1.570258    1.355553    4.146673
H      0.648866    1.213034    4.363378
H      1.598567    1.330031    3.190232
O      4.259891    2.467154    4.305052
H      3.361676    2.289413    4.584065
H      4.535172    1.666750    3.858058
O     -2.638105   -0.095480   -3.365366
H     -3.289215   -0.019773   -4.062906
H     -2.905306   -0.870177   -2.870713
O      2.412592   -1.557062   -2.161967
H      1.747640   -0.932321   -2.451394
H      2.113423   -1.843387   -1.298978
O     -1.704282   -0.508958    0.948501
H     -1.086230    0.028196    0.452810
H     -1.191583   -0.850423    1.681150
O      0.101826   -1.606758    2.834774
H     -0.365152   -0.971406    3.377442
H      0.569908   -2.159087    3.460924
O     -1.384573   -3.438684    0.411378
H     -0.520274   -3.845407    0.473006
H     -1.250732   -2.542658    0.720333
O     -4.368479   -0.948052    0.234942
H     -4.348813   -1.621953   -0.444546
H     -3.458152   -0.867716    0.519686
O      2.901225    0.939057   -0.021170
H      3.596011    0.289405   -0.128208
H      2.688845    1.212549   -0.913544
O     -1.846815   -3.240590   -3.139473
H     -1.212800   -2.643212   -2.742742
H     -2.642467   -3.125760   -2.619872
O     -0.286712   -0.233482   -2.487986
H     -1.133184   -0.270124   -2.933381
H     -0.420611    0.383491   -1.768509
O      1.020055   -4.651307    0.264673
H      1.257127   -3.753056    0.495267
H      1.686030   -5.191874    0.689524
