81
Comment: water_tiny_lattice_9.3215
O     -2.217302    2.805476    2.146856
H     -2.260473    3.658861    2.578259
H     -2.256339    3.006951    1.211915
O      2.882900    3.100970    1.607647
H      3.692345    2.965453    2.100256
H      2.851128    2.368656    0.992068
O     -0.382446    1.447602   -0.456106
H     -0.981429    2.191906   -0.397227
H      0.471639    1.807358   -0.216635
O     -2.505667    3.213495   -0.663892
H     -2.358060    4.156399   -0.590549
H     -3.068489    3.117738   -1.432197
O      2.345928    1.716262   -2.572383
H      2.201334    1.252679   -3.397255
H      1.613433    2.329284   -2.510020
O     -4.248341   -3.134296   -1.896143
H     -4.230992   -4.040069   -2.205190
H     -5.171114   -2.883597   -1.939411
O      4.663108    3.585650   -2.505168
H      4.630307    3.226524   -3.391839
H      3.932785    3.167026   -2.049520
O      0.944614   -3.773648    4.478373
H      1.828944   -3.975403    4.172611
H      0.910080   -4.131115    5.365649
O     -1.179212    0.753393    3.973387
H     -1.823145    0.725191    4.681049
H     -1.514684    1.416370    3.369935
O      4.419835    0.288393    2.843339
H      4.169253   -0.557188    3.215404
H      4.749147    0.077991    1.969546
O      3.470152   -4.127259    3.392298
H      3.202164   -4.648032    2.635193
H      4.278795   -4.541062    3.694116
O      0.445691    3.980738   -2.412807
H      0.430469    4.203242   -1.481949
H     -0.467276    4.051812   -2.691503
O      1.818930   -2.268701    0.853994
H      2.572770   -1.679757    0.820734
H      1.292552   -1.943735    1.584443
O     -2.145886   -4.053443    3.578042
H     -1.997915   -3.973406    4.520344
H     -1.601924   -3.367714    3.190600
O      4.457287   -1.658491   -4.306836
H      4.561119   -2.425380   -4.870160
H      3.556599   -1.715237   -3.987812
O      1.570258    1.355553    4.146673
H      0.648866    1.213034    4.363378
H      1.598567    1.330031    3.190232
O      4.259891    2.467154    4.305052
H      3.361676    2.289413    4.584065
H      4.535172    1.666750    3.858058
O     -2.638105   -0.095480   -3.365366
H     -3.289215   -0.019773   -4.062906
H     -2.905306   -0.870177   -2.870713
O      2.412592   -1.557062   -2.161967
H      1.747640   -0.932321   -2.451394
H      2.113423   -1.843387   -1.298978
O     -1.704282   -0.508958    0.948501
H     -1.086230    0.028196    0.452810
H     -1.191583   -0.850423    1.681150
O      0.101826   -1.606758    2.834774
H     -0.365152   -0.971406    3.377442
H      0.569908   -2.159087    3.460924
O     -1.384573   -3.438684    0.411378
H     -0.520274   -3.845407    0.473006
H     -1.250732   -2.542658    0.720333
O     -4.368479   -0.948052    0.234942
H     -4.348813   -1.621953   -0.444546
H     -3.458152   -0.867716    0.519686
O      2.901225    0.939057   -0.021170
H      3.596011    0.289405   -0.128208
H      2.688845    1.212549   -0.913544
O     -1.846815   -3.240590   -3.139473
H     -1.212800   -2.643212   -2.742742
H     -2.642467   -3.125760   -2.619872
O     -0.286712   -0.233482   -2.487986
H     -1.133184   -0.270124   -2.933381
H     -0.420611    0.383491   -1.768509
O      1.020055   -4.651307    0.264673
H      1.257127   -3.753056    0.495267
H      1.686030   -5.191874    0.689524

81
Comment: optimized 
O   7.91575351797  1.03013185261  1.96003824848
H   7.65084198394  1.65649028629  2.64103290631
H   7.77016044004  1.51086886445  1.1292468472
O   4.15199203095  3.47461636678  1.09934297052
H   4.10519537824  2.62540790622  1.59027285993
H   3.38861903581  3.48290692445  0.523413292791
O   8.43160860452  -2.84424295559  7.79714787144
H   8.05039477204  -2.19965202798  7.16911976633
H   9.05628251764  -2.36378266239  8.35759717738
O   7.1547412515  -0.92488051576  6.35069562381
H   7.46599885934  0.00205004913381  6.23804764413
H   6.34556495726  -0.859027339036  6.8836527591
O   2.39958843678  2.52439880478  7.01604271771
H   2.30310931263  1.55815841853  7.10138717135
H   2.73465330386  2.66027789763  6.1217433478
O   4.65908416642  5.85628141203  6.89794833706
H   4.40605186588  4.9913999397  7.25109844375
H   3.92502284141  6.16025135636  6.31834951304
O   5.07897539813  3.08041655051  7.57217557729
H   5.18132899247  3.04475352254  6.60629400499
H   4.20752367472  2.70064461657  7.72136778316
O   1.01550958153  7.40706293557  0.154433494532
H   1.5976498589  6.65081043843  0.204203074548
H   0.725177765032  7.57892154284  1.06422342212
O   9.11123595752  -1.27126392578  2.62176604965
H   8.23698344374  7.8536078694  2.99925168226
H   8.93932081924  -0.393710468976  2.25422580784
O   3.81535015673  10.7500673303  2.81836172591
H   2.92615448362  10.6138383334  3.20883231232
H   4.21707484761  9.87693231936  2.78688040176
O   3.40932860941  5.11464306837  3.17333966048
H   3.65381412231  4.63616920614  2.36573207948
H   3.94133341139  4.66795030091  3.86310996119
O   10.4972683945  3.87118445466  4.32895449929
H   1.94701642245  4.27210065934  3.88490747891
H   10.5599829264  4.14973573726  5.26777468089
O   1.09231812915  5.01488598796  -2.64530020764
H   1.31618748824  4.54345970891  -1.82343996808
H   0.252364367708  5.41429029539  -2.39921415546
O   6.72597605016  4.01002152636  2.86380562456
H   7.42918348049  4.60811910196  3.18566987578
H   6.02924427655  4.63178973026  2.626809169
O   4.00862228028  7.9056634355  3.52567932878
H   3.82693855428  7.07631360046  3.06305783096
H   3.49109857287  7.7740230627  4.33698278333
O   1.53504556097  1.14682018048  4.18301422579
H   0.91685457846  0.428235721129  4.03695763297
H   1.05453782937  1.98313665146  4.12179914151
O   4.74357413655  3.20616262366  4.66708189327
H   4.45045236646  2.49440983833  4.06104387032
H   5.64874938769  3.38469882655  4.34489117462
O   6.74128423263  7.36648978572  3.8804845021
H   5.82151753603  7.6700137292  3.80186417198
H   6.94104603927  7.55263041836  4.81784093358
O   2.55845757655  7.08842080411  5.71955867002
H   1.91070609203  6.40102742603  5.99099301096
H   2.40123161215  7.85362885263  6.30998678985
O   4.85827257731  8.1520913957  -1.1114318098
H   5.24450366095  7.89333117212  9.05109735545
H   4.76001250798  7.28352880898  -1.56101666686
O   6.15966101371  6.66966882679  0.9051897437
H   6.4006737386  6.96176687874  1.78732170012
H   6.98260827257  6.5433613453  0.432366895938
O   7.31019239896  2.94534424961  9.39692455661
H   6.75422601296  3.43087197298  10.0144686997
H   6.72288280327  2.87063490643  -0.705612608088
O   2.47728512613  9.10954060938  7.60388432832
H   3.37008417032  8.89753692684  7.95806797553
H   1.86339351779  8.77776793798  8.27065404372
O   0.874675696833  3.96547681039  9.16621527885
H   -0.0804237343377  13.2828842471  9.3351579213
H   1.00139854392  3.06527956764  8.85733060184
O   6.87497309244  4.33065954427  6.03729392509
H   7.3575102887  4.8810981244  5.40694596202
H   6.1284471128  4.88061198199  6.31806022884
O   8.60949375879  5.46324631265  4.04643042689
H   9.28636116854  4.75058126436  4.06113201786
H   8.96420511405  6.22109600169  3.55905052785
O   -1.50367454367  1.64177014204  5.90128450428
H   -2.00840225546  2.46467862264  5.98107553894
H   -0.587730310951  1.92113706803  -3.35067919898
