305
Comment: X12
   N       17.79000       -2.52100        5.34800
   C       16.76200       -3.28800        4.85400
   N       15.99500       -3.95500        5.67000
   N       16.54300       -3.35200        3.49800
   C       15.44700       -4.16900        2.97000
   C       15.42300       -4.06600        1.44400
   C       14.27900       -4.92000        0.89300
   C       14.25500       -4.81700       -0.63300
   N       15.48100       -5.40900       -1.18300
   C       13.05600       -5.55700       -1.16800
   O       13.18500       -6.67400       -1.62000
   N       11.84000       -4.97600       -1.14300
   C       10.67400       -5.69600       -1.66200
   C       10.58000       -5.48900       -3.17500
   C       10.52300       -3.99100       -3.48300
   O       11.72700       -6.06200       -3.80700
   C        9.42500       -5.16900       -1.00500
   O        9.44000       -4.09100       -0.45000
   N        8.29000       -5.89700       -1.03300
   C        7.10700       -5.43700       -0.30300
   C        6.21900       -6.63600        0.03600
   C        6.94800       -7.54600        0.99100
   C        6.82100       -7.36000        2.35500
   C        7.48800       -8.19300        3.23200
   C        8.28600       -9.21700        2.74300
   O        8.94300      -10.03900        3.60400
   C        8.41100       -9.40300        1.37400
   C        7.73700       -8.57000        0.50100
   C        6.33400       -4.46600       -1.15800
   O        6.73300       -4.18600       -2.26900
   N        5.20000       -3.90900       -0.68900
   C        4.44900       -2.96500       -1.52100
   C        4.02000       -3.64800       -2.79300
   O        4.59000       -4.65200       -3.16400
   N        3.00300       -3.14300       -3.51900
   C        2.58600       -3.80700       -4.75700
   C        3.44600       -3.33000       -5.89800
   O        4.32200       -2.51500       -5.69700
   N        3.24300       -3.80800       -7.14100
   C        4.08000       -3.34400       -8.25100
   C        3.65000       -4.02800       -9.52400
   O        2.73900       -4.82100       -9.50600
   O        4.28000       -3.75500      -10.67700
   C        1.12200       -3.47100       -5.04700
   C        0.23500       -4.06500       -3.95000
   C       -1.22900       -3.72900       -4.24000
   C       -2.11600       -4.32200       -3.14400
   N       -3.51800       -4.00000       -3.42200
   C        5.33700       -1.76600       -1.86000
   C        5.67100       -0.99900       -0.57800
   C        6.55900        0.19900       -0.91700
   C        6.89200        0.96600        0.36400
   N        7.74200        2.11400        0.03900
   C        8.16400        2.93900        1.01800
   O        7.84000        2.73000        2.16800
   C        9.03800        4.12000        0.68400
   C        8.29900        5.04400       -0.28500
   C        9.21700        6.15900       -0.71500
   C       10.01400        6.00500       -1.83400
   C       10.85600        7.02500       -2.23000
   C       10.90200        8.20700       -1.50300
   O       11.72900        9.21200       -1.89100
   C       10.10100        8.35900       -0.38100
   C        9.25600        7.33800        0.00800
   N        9.35800        4.85300        1.91100
   C       10.47600        5.60300        1.97700
   O       11.21800        5.67000        1.01900
   C       10.80500        6.35800        3.23900
   C       10.95300        5.37100        4.39900
   C       11.28700        6.13800        5.68000
   O        9.72900        4.65700        4.57600
   N       12.06000        7.09000        3.05700
   C       12.31000        8.19200        3.79200
   O       11.49600        8.57700        4.60400
   C       13.60200        8.94600        3.60500
   N       13.86100        9.77500        4.78900
   C       13.49500        9.84100        2.36900
   C       14.84600       10.51100        2.10600
   C       14.73900       11.40600        0.87100
   N       16.03200       12.04800        0.61900
   C       16.18000       12.90300       -0.44700
   N       17.39300       13.50500       -0.68200
   N       15.16900       13.14400       -1.23400
   N      -16.48100       -5.53600        6.23200
   C      -16.29600       -4.32800        6.86200
   N      -17.31600       -3.69600        7.37100
   N      -15.03500       -3.78700        6.95500
   C      -13.88900       -4.49800        6.38300
   C      -12.61500       -3.68600        6.62200
   C      -11.41700       -4.42800        6.02500
   C      -10.14300       -3.61600        6.26400
   N       -9.87300       -3.54200        7.70600
   C       -8.98400       -4.28500        5.57000
   O       -8.21400       -4.97500        6.20400
   N       -8.80300       -4.11600        4.24500
   C       -7.67600       -4.76600        3.57100
   C       -6.42900       -3.89100        3.70500
   C       -6.06400       -3.74400        5.18300
   O       -5.34200       -4.50100        3.00500
   C       -8.00500       -4.95300        2.11200
   O       -8.83600       -4.24800        1.58200
   N       -7.37400       -5.90600        1.39700
   C       -7.62800       -6.03100       -0.04100
   C       -7.33500       -7.46400       -0.48700
   C       -8.31000       -8.40500        0.17300
   C       -9.51000       -8.70300       -0.44700
   C      -10.40500       -9.56400        0.15700
   C      -10.09900      -10.13200        1.38500
   O      -10.97800      -10.98000        1.98100
   C       -8.89500       -9.83200        2.00400
   C       -8.00000       -8.97400        1.39500
   C       -6.73500       -5.07800       -0.79300
   O       -5.96300       -4.36500       -0.18800
   N       -6.79500       -5.01800       -2.13800
   C       -5.92700       -4.09200       -2.87000
   C       -4.48500       -4.42300       -2.58400
   O       -4.19500       -5.07000       -1.60000
   C       -6.22000       -2.65800       -2.42300
   C       -7.64700       -2.28000       -2.82600
   C       -7.93900       -0.84600       -2.37900
   C       -9.36600       -0.46800       -2.78100
   N       -9.64600        0.90500       -2.35300
   C      -10.85000        1.45600       -2.60300
   O      -11.70200        0.81600       -3.18200
   C      -11.13800        2.86900       -2.16300
   C      -10.14900        3.82400       -2.83300
   C      -10.35700        5.21800       -2.30000
   C       -9.65600        5.64300       -1.18600
   C       -9.84600        6.92000       -0.69600
   C      -10.73900        7.77700       -1.32200
   O      -10.92700        9.03400       -0.84100
   C      -11.44000        7.34900       -2.43900
   C      -11.24400        6.07200       -2.92900
   N      -12.50500        3.23100       -2.54800
   C      -13.16600        4.18800       -1.86700
   O      -12.63000        4.74900       -0.93500
   C      -14.57100        4.56100       -2.26400
   C      -15.47600        3.33300       -2.14800
   C      -16.90300        3.71100       -2.55100
   O      -14.99400        2.30300       -3.01400
   N      -15.06500        5.61600       -1.37600
   C      -16.03500        6.45200       -1.79800
   O      -16.49800        6.33000       -2.91200
   C      -16.54300        7.53800       -0.88500
   N      -17.86400        7.98500       -1.34400
   C      -15.56900        8.71900       -0.90500
   C      -16.01800        9.76800        0.11400
   C      -15.04500       10.94800        0.09300
   N      -15.47500       11.95300        1.06900
   C      -14.75000       13.11000        1.23000
   N      -15.15400       14.05200        2.14500
   N      -13.68000       13.31300        0.51400
   H       17.94500       -2.47700        6.30500
   H       18.36400       -2.02900        4.74100
   H       15.27000       -4.49600        5.32100
   H       17.11400       -2.85600        2.89100
   H       15.59700       -5.20900        3.26200
   H       14.50000       -3.81100        3.37400
   H       15.27400       -3.02700        1.15200
   H       16.37000       -4.42400        1.04100
   H       14.42800       -5.95900        1.18500
   H       13.33200       -4.56100        1.29700
   H       14.19500       -3.76800       -0.92500
   H       15.56000       -6.38200       -0.92600
   H       15.52000       -5.29600       -2.18500
   H       11.73600       -4.08200       -0.78100
   H       10.77800       -6.75900       -1.44700
   H        9.67900       -5.97200       -3.55300
   H       11.42500       -3.50800       -3.10600
   H       10.45600       -3.84400       -4.56100
   H        9.64800       -3.55500       -3.00200
   H       11.77800       -7.02400       -3.73100
   H        8.25800       -6.72500       -1.53700
   H        7.41700       -4.94300        0.61800
   H        5.29700       -6.28500        0.50100
   H        5.98100       -7.18100       -0.87700
   H        6.20000       -6.56200        2.73500
   H        7.38900       -8.04700        4.29800
   H        8.43800      -10.82200        3.86300
   H        9.03100      -10.19900        0.99100
   H        7.83100       -8.71600       -0.56500
   H        4.88100       -4.13300        0.19900
   H        3.56900       -2.62300       -0.97700
   H        2.54700       -2.34000       -3.22200
   H        2.69600       -4.88600       -4.64500
   H        2.54200       -4.46000       -7.30200
   H        3.97000       -2.26600       -8.36200
   H        5.12300       -3.58400       -8.04400
   H        3.97000       -4.21800      -11.46700
   H        0.99500       -2.38900       -5.07000
   H        0.83700       -3.89100       -6.01100
   H        0.36200       -5.14700       -3.92700
   H        0.52000       -3.64400       -2.98600
   H       -1.35600       -2.64600       -4.26400
   H       -1.51400       -4.14900       -5.20500
   H       -1.98900       -5.40400       -3.12000
   H       -1.83100       -3.90200       -2.17900
   H       -3.75000       -3.48300       -4.20900
   H        6.25900       -2.11600       -2.32400
   H        4.81000       -1.10700       -2.55000
   H        4.74900       -0.64900       -0.11400
   H        6.19800       -1.65800        0.11200
   H        7.48100       -0.15100       -1.38200
   H        6.03200        0.85800       -1.60800
   H        5.97000        1.31600        0.82800
   H        7.41900        0.30700        1.05400
   H        8.00200        2.28000       -0.88000
   H        9.96000        3.76900        0.22000
   H        7.98300        4.47600       -1.16000
   H        7.42400        5.46400        0.21100
   H        9.97700        5.08500       -2.39900
   H       11.47900        6.90400       -3.10300
   H       11.32600        9.83800       -2.50700
   H       10.13500        9.27800        0.18600
   H        8.62900        7.45800        0.87900
   H        8.76500        4.79900        2.67700
   H       10.00200        7.06200        3.46100
   H       11.75500        4.66800        4.17700
   H       10.48400        6.84100        5.90200
   H       11.39300        5.43500        6.50700
   H       12.22100        6.68300        5.54500
   H        8.96900        5.22100        4.77700
   H       12.71200        6.78300        2.40800
   H       14.42000        8.23800        3.47100
   H       13.11600       10.44000        4.93500
   H       13.99900        9.20200        5.60900
   H       13.21600        9.23700        1.50600
   H       12.73700       10.60600        2.53800
   H       15.12500       11.11500        2.97000
   H       15.60400        9.74600        1.93700
   H       14.46000       10.80200        0.00700
   H       13.98100       12.17100        1.04000
   H       16.78400       11.86900        1.20500
   H       18.14500       13.32600       -0.09700
   H       17.49700       14.10900       -1.43400
   H       14.31300       12.71900       -1.06700
   H      -17.37000       -5.91800        6.16600
   H      -15.72200       -6.00700        5.85300
   H      -17.18500       -2.84400        7.81600
   H      -14.90500       -2.93500        7.40000
   H      -13.79300       -5.47400        6.85900
   H      -14.04100       -4.62900        5.31200
   H      -12.71100       -2.71000        6.14700
   H      -12.46300       -3.55500        7.69400
   H      -11.32100       -5.40500        6.50000
   H      -11.56900       -4.56000        4.95300
   H      -10.27300       -2.61000        5.86600
   H       -9.74900       -4.46300        8.09900
   H       -9.07300       -2.95700        7.89400
   H       -9.41900       -3.56400        3.73800
   H       -7.49000       -5.73700        4.02900
   H       -6.62800       -2.90700        3.28000
   H       -5.97900       -4.73200        5.63600
   H       -5.11300       -3.22000        5.27300
   H       -6.84200       -3.17600        5.69400
   H       -4.51600       -3.99900        3.04700
   H       -6.75200       -6.50900        1.83400
   H       -8.67100       -5.79200       -0.24700
   H       -7.43800       -7.53600       -1.57000
   H       -6.31900       -7.73400       -0.20100
   H       -9.74700       -8.26000       -1.40300
   H      -11.34300       -9.79600       -0.32700
   H      -10.85200      -11.90900        1.74200
   H       -8.65500      -10.27300        2.96100
   H       -7.06200       -8.74100        1.87600
   H       -7.41300       -5.58900       -2.62200
   H       -6.11600       -4.18500       -3.93900
   H       -6.11700       -2.58700       -1.34000
   H       -5.51500       -1.97800       -2.90100
   H       -7.74900       -2.35100       -3.90800
   H       -8.35100       -2.96000       -2.34800
   H       -7.83600       -0.77500       -1.29600
   H       -7.23400       -0.16600       -2.85600
   H       -9.46900       -0.53900       -3.86400
   H      -10.07100       -1.14800       -2.30400
   H       -8.96500        1.41800       -1.89000
   H      -11.03500        2.94000       -1.08000
   H       -9.13000        3.50100       -2.61800
   H      -10.31200        3.81900       -3.91100
   H       -8.96100        4.97500       -0.69900
   H       -9.29900        7.25100        0.17500
   H      -10.33200        9.69400       -1.22300
   H      -12.13700        8.01400       -2.92800
   H      -11.78600        5.74000       -3.80200
   H      -12.93300        2.78300       -3.29400
   H      -14.57500        4.92000       -3.29300
   H      -15.47200        2.97400       -1.11900
   H      -16.90700        4.07000       -3.58000
   H      -17.54800        2.83600       -2.46900
   H      -17.27000        4.49700       -1.89100
   H      -14.97000        2.55300       -3.94800
   H      -14.69400        5.71400       -0.48500
   H      -16.62300        7.15100        0.13100
   H      -17.81700        8.34900       -2.28400
   H      -18.54100        7.24000       -1.27900
   H      -14.56900        8.36900       -0.65000
   H      -15.55700        9.16200       -1.90100
   H      -17.01900       10.11700       -0.14100
   H      -16.03100        9.32500        1.11000
   H      -14.04500       10.59900        0.34900
   H      -15.03200       11.39100       -0.90200
   H      -16.27200       11.80100        1.60200
   H      -15.95000       13.90100        2.67800
   H      -14.64200       14.86900        2.25900
   H      -13.39500       12.64800       -0.13200
